/*---------------------------------------------------------------------------*\
| =========                 |                                                 |
| \\      /  F ield         | OpenFOAM: The Open Source CFD Toolbox           |
|  \\    /   O peration     | Version:  v2106                                 |
|   \\  /    A nd           | Website:  www.openfoam.com                      |
|    \\/     M anipulation  |                                                 |
\*---------------------------------------------------------------------------*/
Build  : _c15bfde3cb-20210624 OPENFOAM=2106
Arch   : "LSB;label=32;scalar=64"
Exec   : snappyHexMesh -overwrite
Date   : Dec 31 2023
Time   : 13:57:33
Host   : gagan-Z97P-D3
PID    : 46854
I/O    : uncollated
Case   : /mnt/156ef307-e85d-45af-b0ab-57748c0af3f2/contra_props_60mm_template/PropellerMesh_CW
nProcs : 1
trapFpe: Floating point exception trapping enabled (FOAM_SIGFPE).
fileModificationChecking : Monitoring run-time modified files using timeStampMaster (fileModificationSkew 5, maxFileModificationPolls 20)
allowSystemOperations : Allowing user-supplied system call operations

// * * * * * * * * * * * * * * * * * * * * * * * * * * * * * * * * * * * * * //
Create time

Create mesh for time = 0

Read mesh in = 0 s

Overall mesh bounding box  : (-0.08 -0.04 -0.02) (-0.04 0.04 0.02)
Relative tolerance         : 1e-07
Absolute matching distance : 9.79796e-09

Reading refinement surfaces.
Read refinement surfaces in = 0.01 s

Reading refinement shells.
Refinement level according to distance to propellerCW
    level 2 for all cells within 0.001 metre.
    level 1 for all cells within 0.08 metre.
Read refinement shells in = 0 s

Setting refinement level of surface to be consistent with shells.
For geometry propellerCW detected 0 uncached triangles out of 12192
Checked shell refinement in = 0.05 s

Reading features.
Read edgeMesh PropCW.eMesh
    points      : 1496
    edges       : 1498
    boundingBox : (-0.0651702 -0.0289811 -0.00349777) (-0.060158 0.0289981 0.00349299)

Refinement level according to distance to "PropCW.eMesh" (1496 points, 1498 edges).
    level 4 for all cells within 0 metre.
Read features in = 0 s


Determining initial surface intersections
-----------------------------------------

Edge intersection testing:
    Number of edges             : 6500
    Number of edges to retest   : 0
    Number of intersected edges : 0
Edge intersection testing:
    Number of edges             : 6500
    Number of edges to retest   : 6500
    Number of intersected edges : 12
Calculated surface intersections in = 0.01 s

Initial mesh : cells:2000  faces:6500  points:2541
Cells per refinement level:
    0	2000

Adding patches for surface regions
----------------------------------

Patch Type                Region                        
----- ----                ------                        
propellerCW:

1     wall                propellerCW                   

Added patches in = 0 s

Edge intersection testing:
    Number of edges             : 6500
    Number of edges to retest   : 0
    Number of intersected edges : 12
Decomposition method none [1]

Refinement phase
----------------

Found point (-0.069 0 0) in cell 892 on processor 0

Feature refinement iteration 0
------------------------------

Marked for refinement due to explicit features             : 34 cells.
Determined cells to refine in = 0.02 s
Selected for feature refinement : 34 cells (out of 2000)
Edge intersection testing:
    Number of edges             : 7394
    Number of edges to retest   : 1422
    Number of intersected edges : 125
Refined mesh in = 0.01 s
After refinement feature refinement iteration 0 : cells:2238  faces:7394  points:2979
Cells per refinement level:
    0	1966
    1	272

Feature refinement iteration 1
------------------------------

Marked for refinement due to explicit features             : 74 cells.
Determined cells to refine in = 0.02 s
Selected for feature refinement : 122 cells (out of 2238)
Edge intersection testing:
    Number of edges             : 10442
    Number of edges to retest   : 4674
    Number of intersected edges : 366
Refined mesh in = 0.01 s
After refinement feature refinement iteration 1 : cells:3092  faces:10442  points:4377
Cells per refinement level:
    0	1918
    1	582
    2	592

Feature refinement iteration 2
------------------------------

Marked for refinement due to explicit features             : 216 cells.
Determined cells to refine in = 0.04 s
Selected for feature refinement : 408 cells (out of 3092)
Edge intersection testing:
    Number of edges             : 20477
    Number of edges to retest   : 14447
    Number of intersected edges : 1219
Refined mesh in = 0.03 s
After refinement feature refinement iteration 2 : cells:5948  faces:20477  points:8829
Cells per refinement level:
    0	1870
    1	822
    2	1528
    3	1728

Feature refinement iteration 3
------------------------------

Marked for refinement due to explicit features             : 580 cells.
Determined cells to refine in = 0.05 s
Selected for feature refinement : 1025 cells (out of 5948)
Edge intersection testing:
    Number of edges             : 45530
    Number of edges to retest   : 37490
    Number of intersected edges : 3771
Refined mesh in = 0.09 s
After refinement feature refinement iteration 3 : cells:13123  faces:45530  points:19826
Cells per refinement level:
    0	1852
    1	853
    2	2118
    3	3660
    4	4640

Feature refinement iteration 4
------------------------------

Marked for refinement due to explicit features             : 0 cells.
Determined cells to refine in = 0.19 s
Selected for feature refinement : 0 cells (out of 13123)
Stopping refining since too few cells selected.


Surface refinement iteration 0
------------------------------

Marked for refinement due to surface intersection          : 210 cells.
Marked for refinement due to curvature/regions             : 281 cells.
Determined cells to refine in = 0.01 s
Selected for refinement : 515 cells (out of 13123)
Edge intersection testing:
    Number of edges             : 56411
    Number of edges to retest   : 24818
    Number of intersected edges : 4655
Refined mesh in = 0.08 s
After refinement surface refinement iteration 0 : cells:16728  faces:56411  points:23417
Cells per refinement level:
    0	1850
    1	852
    2	2039
    3	5099
    4	6888

Surface refinement iteration 1
------------------------------

Marked for refinement due to surface intersection          : 28 cells.
Marked for refinement due to curvature/regions             : 116 cells.
Determined cells to refine in = 0.02 s
Selected for refinement : 176 cells (out of 16728)
Edge intersection testing:
    Number of edges             : 60296
    Number of edges to retest   : 8157
    Number of intersected edges : 4942
Refined mesh in = 0.06 s
After refinement surface refinement iteration 1 : cells:17960  faces:60296  points:24832
Cells per refinement level:
    0	1842
    1	904
    2	2095
    3	5303
    4	7816

Surface refinement iteration 2
------------------------------

Marked for refinement due to surface intersection          : 0 cells.
Marked for refinement due to curvature/regions             : 16 cells.
Determined cells to refine in = 0.02 s
Selected for refinement : 28 cells (out of 17960)
Edge intersection testing:
    Number of edges             : 60956
    Number of edges to retest   : 1332
    Number of intersected edges : 4992
Refined mesh in = 0.05 s
After refinement surface refinement iteration 2 : cells:18156  faces:60956  points:25105
Cells per refinement level:
    0	1838
    1	932
    2	2123
    3	5319
    4	7944

Surface refinement iteration 3
------------------------------

Marked for refinement due to surface intersection          : 0 cells.
Marked for refinement due to curvature/regions             : 0 cells.
Determined cells to refine in = 0.02 s
Selected for refinement : 0 cells (out of 18156)
Stopping refining since too few cells selected.


Removing mesh beyond surface intersections
------------------------------------------

Setting cellZones according to locationsInMesh:
Location : (-0.069 0 0)
    cellZone : none

For cellZone none found point (-0.069 0 0) in global region 0 out of 3 regions.
Keeping all cells containing inside points
Selected for keeping : 18156 cells.
Edge intersection testing:
    Number of edges             : 60956
    Number of edges to retest   : 0
    Number of intersected edges : 4992
Setting cellZones according to locationsInMesh:
Location : (-0.069 0 0)
    cellZone : none

For cellZone none found point (-0.069 0 0) in global region 0 out of 3 regions.
Keeping all cells containing inside points
Selected for keeping : 18026 cells.
Edge intersection testing:
    Number of edges             : 60838
    Number of edges to retest   : 544
    Number of intersected edges : 4992

Shell refinement iteration 0
----------------------------

Marked for refinement due to distance to explicit features : 0 cells.
Marked for refinement due to refinement shells             : 1838 cells.
Determined cells to refine in = 0.2 s
Selected for internal refinement : 3437 cells (out of 18026)
Edge intersection testing:
    Number of edges             : 137251
    Number of edges to retest   : 123572
    Number of intersected edges : 5646
Refined mesh in = 0.21 s
After refinement shell refinement iteration 0 : cells:42085  faces:137251  points:53462
Cells per refinement level:
    0	0
    1	15491
    2	2799
    3	8221
    4	15574

Shell refinement iteration 1
----------------------------

Marked for refinement due to distance to explicit features : 0 cells.
Marked for refinement due to refinement shells             : 0 cells.
Determined cells to refine in = 0.02 s
Selected for internal refinement : 623 cells (out of 42085)
Edge intersection testing:
    Number of edges             : 150709
    Number of edges to retest   : 46678
    Number of intersected edges : 5876
Refined mesh in = 0.16 s
After refinement shell refinement iteration 1 : cells:46446  faces:150709  points:58180
Cells per refinement level:
    0	0
    1	15346
    2	3742
    3	9696
    4	17662

Shell refinement iteration 2
----------------------------

Marked for refinement due to distance to explicit features : 0 cells.
Marked for refinement due to refinement shells             : 0 cells.
Determined cells to refine in = 0.02 s
Selected for internal refinement : 124 cells (out of 46446)
Edge intersection testing:
    Number of edges             : 153280
    Number of edges to retest   : 11229
    Number of intersected edges : 5876
Refined mesh in = 0.13 s
After refinement shell refinement iteration 2 : cells:47314  faces:153280  points:59027
Cells per refinement level:
    0	0
    1	15270
    2	4302
    3	10080
    4	17662

Shell refinement iteration 3
----------------------------

Marked for refinement due to distance to explicit features : 0 cells.
Marked for refinement due to refinement shells             : 0 cells.
Determined cells to refine in = 0.03 s
Selected for internal refinement : 4 cells (out of 47314)
Stopping refining since too few cells selected.


Dangling coarse cells refinement iteration 0
--------------------------------------------

Determined cells to refine in = 0 s
Selected for refinement : 1 cells (out of 47314)
Edge intersection testing:
    Number of edges             : 153295
    Number of edges to retest   : 121
    Number of intersected edges : 5876
Refined mesh in = 0.13 s
After refinement coarse cell refinement iteration 0 : cells:47321  faces:153295  points:59029
Cells per refinement level:
    0	0
    1	15270
    2	4302
    3	10079
    4	17670

Dangling coarse cells refinement iteration 1
--------------------------------------------

Determined cells to refine in = 0 s
Selected for refinement : 0 cells (out of 47321)
Stopping refining since too few cells selected.


Dangling coarse cells refinement iteration 0
--------------------------------------------

Determined cells to refine in = 0 s
Selected for refinement : 0 cells (out of 47321)
Stopping refining since too few cells selected.


Refinement transition refinement iteration 0
--------------------------------------------

Determined cells to refine in = 0 s
Selected for refinement : 10 cells (out of 47321)
Edge intersection testing:
    Number of edges             : 153556
    Number of edges to retest   : 929
    Number of intersected edges : 5933
Refined mesh in = 0.12 s
After refinement interface cell refinement iteration 0 : cells:47391  faces:153556  points:59152
Cells per refinement level:
    0	0
    1	15270
    2	4302
    3	10069
    4	17750

Refinement transition refinement iteration 1
--------------------------------------------

Determined cells to refine in = 0.01 s
Selected for refinement : 0 cells (out of 47391)
Stopping refining since too few cells selected.


Splitting mesh at surface intersections
---------------------------------------

Introducing baffles for 5933 faces that are intersected by the surface.

Setting cellZones according to locationsInMesh:
Location : (-0.069 0 0)
    cellZone : none

For cellZone none found point (-0.069 0 0) in global region 0 out of 3 regions.
Edge intersection testing:
    Number of edges             : 159489
    Number of edges to retest   : 34725
    Number of intersected edges : 11701
Created baffles in = 0.17 s


After introducing baffles : cells:47391  faces:159489  points:59152
Cells per refinement level:
    0	0
    1	15270
    2	4302
    3	10069
    4	17750

Introducing baffles to block off problem cells
----------------------------------------------

markFacesOnProblemCells : marked 1595 additional internal faces to be converted into baffles.
Analyzed problem cells in = 0.11 s


Introducing baffles to delete problem cells.

Edge intersection testing:
    Number of edges             : 161084
    Number of edges to retest   : 6009
    Number of intersected edges : 11701
Created baffles in = 0.1 s


After introducing baffles : cells:47391  faces:161084  points:59152
Cells per refinement level:
    0	0
    1	15270
    2	4302
    3	10069
    4	17750
Setting cellZones according to locationsInMesh:
Location : (-0.069 0 0)
    cellZone : none

For cellZone none found point (-0.069 0 0) in global region 0 out of 861 regions.
Edge intersection testing:
    Number of edges             : 161084
    Number of edges to retest   : 35874
    Number of intersected edges : 11701

Remove unreachable sections of mesh
-----------------------------------

Keeping all cells containing points 1((-0.069 0 0))
Selected for keeping : 46103 cells.
Edge intersection testing:
    Number of edges             : 154295
    Number of edges to retest   : 0
    Number of intersected edges : 9540
Split mesh in = 0.31 s


After subsetting : cells:46103  faces:154295  points:58288
Cells per refinement level:
    0	0
    1	15270
    2	4302
    3	10069
    4	16462

Introducing zones for interfaces
--------------------------------

Setting cellZones according to locationsInMesh:
Location : (-0.069 0 0)
    cellZone : none

For cellZone none found point (-0.069 0 0) in global region 0 out of 1 regions.
Setting faceZones according to neighbouring cellZones:

Edge intersection testing:
    Number of edges             : 154295
    Number of edges to retest   : 0
    Number of intersected edges : 9540

Handling cells with snap problems
---------------------------------

Introducing baffles for 9540 faces that are intersected by the surface.

Setting cellZones according to locationsInMesh:
Location : (-0.069 0 0)
    cellZone : none

For cellZone none found point (-0.069 0 0) in global region 0 out of 1 regions.
Edge intersection testing:
    Number of edges             : 154295
    Number of edges to retest   : 29767
    Number of intersected edges : 9540
Created baffles in = 0.31 s


After introducing baffles : cells:46103  faces:154295  points:58288
Cells per refinement level:
    0	0
    1	15270
    2	4302
    3	10069
    4	16462

Introducing baffles to block off problem cells
----------------------------------------------

markFacesOnProblemCells : marked 0 additional internal faces to be converted into baffles.
Analyzed problem cells in = 0.1 s


Introducing baffles to delete problem cells.

Created baffles in = 0.02 s


After introducing baffles : cells:46103  faces:154295  points:58288
Cells per refinement level:
    0	0
    1	15270
    2	4302
    3	10069
    4	16462
Setting cellZones according to locationsInMesh:
Location : (-0.069 0 0)
    cellZone : none

For cellZone none found point (-0.069 0 0) in global region 0 out of 1 regions.
Edge intersection testing:
    Number of edges             : 154295
    Number of edges to retest   : 29767
    Number of intersected edges : 9540

Remove unreachable sections of mesh
-----------------------------------

Split mesh in = 0.23 s


After subsetting : cells:46103  faces:154295  points:58288
Cells per refinement level:
    0	0
    1	15270
    2	4302
    3	10069
    4	16462

Merge free-standing baffles
---------------------------

freeStandingBaffles : detected 469 free-standing baffles out of 4264

freeStandingBaffles : detected 3 planar (within 20 degrees) free-standing baffles out of 469

Detected free-standing baffles : 3
Edge intersection testing:
    Number of edges             : 154292
    Number of edges to retest   : 3
    Number of intersected edges : 9537

Introducing baffles to block off problem cells
----------------------------------------------

markFacesOnProblemCells : marked 0 additional internal faces to be converted into baffles.
Analyzed problem cells in = 0.22 s


Introducing baffles to delete problem cells.

Created baffles in = 0.01 s


After introducing baffles : cells:46103  faces:154292  points:58288
Cells per refinement level:
    0	0
    1	15270
    2	4302
    3	10069
    4	16462

Remove unreachable sections of mesh
-----------------------------------

Merged free-standing baffles in = 0.05 s


dupNonManifoldPoints : Found : 4211 non-manifold points (out of 58288)
Edge intersection testing:
    Number of edges             : 154292
    Number of edges to retest   : 0
    Number of intersected edges : 9537
Detected unsplittable baffles : 0

Merge refined boundary faces
----------------------------

Merging 112 sets of faces.

Edge intersection testing:
    Number of edges             : 154158
    Number of edges to retest   : 968
    Number of intersected edges : 9403

Undo iteration 0
----------------
Checking faces in error :
    non-orthogonality > 60  degrees                        : 0
    faces with face pyramid volume < 1e-14                 : 0
    faces with face-decomposition tet quality < 1e-15      : 0
    faces with concavity > 80  degrees                     : 0
    faces with area < 1e-08 m^2                            : 0
    faces with skewness > 2   (internal) or 4   (boundary) : 0
    faces with interpolation weights (0..1)  < 0.1         : 0
    faces with volume ratio of neighbour cells < 0.01      : 0
    faces with face twist < 0.02                           : 0
    faces on cells with determinant < 0.001                : 0

Merging all points on surface that
- are used by only two boundary faces and
- make an angle with a cosine of more than 0.707107.

Removing 124 straight edge points ...

Edge intersection testing:
    Number of edges             : 154158
    Number of edges to retest   : 1068
    Number of intersected edges : 9403

Undo iteration 0
----------------
Checking faces in error :
    non-orthogonality > 60  degrees                        : 0
    faces with face pyramid volume < 1e-14                 : 0
    faces with face-decomposition tet quality < 1e-15      : 0
    faces with concavity > 80  degrees                     : 0
    faces with area < 1e-08 m^2                            : 0
    faces with skewness > 2   (internal) or 4   (boundary) : 0
    faces with interpolation weights (0..1)  < 0.1         : 0
    faces with volume ratio of neighbour cells < 0.01      : 0
    faces with face twist < 0.02                           : 0
    faces on cells with determinant < 0.001                : 0
Refined mesh : cells:46103  faces:154158  points:62365
Cells per refinement level:
    0	0
    1	15270
    2	4302
    3	10069
    4	16462
Writing mesh to time constant
Wrote mesh in = 0.89 s.
Mesh refined in = 4.27 s.

Morphing phase
--------------

Duplicating 0 points on faceZones of type boundary
Snapping to features in 20 iterations ...
Constructing mesh displacer ...
Using mesh parameters 
{
    maxNonOrtho     60;
    maxBoundarySkewness 4;
    maxInternalSkewness 2;
    maxConcave      80;
    minVol          1e-14;
    minTetQuality   1e-15;
    minArea         1e-08;
    minTwist        0.02;
    minDeterminant  0.001;
    minFaceWeight   0.1;
    minVolRatio     0.01;
    minTriangleTwist -1;
    nSmoothScale    50;
    errorReduction  0.75;
}


Checking initial mesh ...
Checking faces in error :
    non-orthogonality > 60  degrees                        : 0
    faces with face pyramid volume < 1e-14                 : 0
    faces with face-decomposition tet quality < 1e-15      : 0
    faces with concavity > 80  degrees                     : 0
    faces with area < 1e-08 m^2                            : 0
    faces with skewness > 2   (internal) or 4   (boundary) : 0
    faces with interpolation weights (0..1)  < 0.1         : 0
    faces with volume ratio of neighbour cells < 0.01      : 0
    faces with face twist < 0.02                           : 0
    faces on cells with determinant < 0.001                : 0
Detected 0 illegal faces (concave, zero area or negative cell pyramid volume)
Checked initial mesh in = 0.26 s


Smoothing patch points ...
Smoothing iteration 0
Found 8153 non-manifold point(s).

Scaling iteration 0
Moving mesh using displacement scaling : min:1  max:1
Checking faces in error :
    non-orthogonality > 60  degrees                        : 2
    faces with face pyramid volume < 1e-14                 : 0
    faces with face-decomposition tet quality < 1e-15      : 11
    faces with concavity > 80  degrees                     : 0
    faces with area < 1e-08 m^2                            : 0
    faces with skewness > 2   (internal) or 4   (boundary) : 0
    faces with interpolation weights (0..1)  < 0.1         : 0
    faces with volume ratio of neighbour cells < 0.01      : 0
    faces with face twist < 0.02                           : 0
    faces on cells with determinant < 0.001                : 0

Scaling iteration 1
Moving mesh using displacement scaling : min:0.75  max:1
Checking faces in error :
    non-orthogonality > 60  degrees                        : 0
    faces with face pyramid volume < 1e-14                 : 0
    faces with face-decomposition tet quality < 1e-15      : 1
    faces with concavity > 80  degrees                     : 0
    faces with area < 1e-08 m^2                            : 0
    faces with skewness > 2   (internal) or 4   (boundary) : 0
    faces with interpolation weights (0..1)  < 0.1         : 0
    faces with volume ratio of neighbour cells < 0.01      : 0
    faces with face twist < 0.02                           : 0
    faces on cells with determinant < 0.001                : 0

Scaling iteration 2
Moving mesh using displacement scaling : min:0.5625  max:1
Checking faces in error :
    non-orthogonality > 60  degrees                        : 0
    faces with face pyramid volume < 1e-14                 : 0
    faces with face-decomposition tet quality < 1e-15      : 0
    faces with concavity > 80  degrees                     : 0
    faces with area < 1e-08 m^2                            : 0
    faces with skewness > 2   (internal) or 4   (boundary) : 0
    faces with interpolation weights (0..1)  < 0.1         : 0
    faces with volume ratio of neighbour cells < 0.01      : 0
    faces with face twist < 0.02                           : 0
    faces on cells with determinant < 0.001                : 0
Successfully moved mesh

Smoothing iteration 1
Found 0 non-manifold point(s).

Scaling iteration 0
Moving mesh using displacement scaling : min:1  max:1
Checking faces in error :
    non-orthogonality > 60  degrees                        : 0
    faces with face pyramid volume < 1e-14                 : 0
    faces with face-decomposition tet quality < 1e-15      : 0
    faces with concavity > 80  degrees                     : 0
    faces with area < 1e-08 m^2                            : 0
    faces with skewness > 2   (internal) or 4   (boundary) : 0
    faces with interpolation weights (0..1)  < 0.1         : 0
    faces with volume ratio of neighbour cells < 0.01      : 0
    faces with face twist < 0.02                           : 0
    faces on cells with determinant < 0.001                : 0
Successfully moved mesh

Smoothing iteration 2
Found 0 non-manifold point(s).

Scaling iteration 0
Moving mesh using displacement scaling : min:1  max:1
Checking faces in error :
    non-orthogonality > 60  degrees                        : 12
    faces with face pyramid volume < 1e-14                 : 0
    faces with face-decomposition tet quality < 1e-15      : 1
    faces with concavity > 80  degrees                     : 0
    faces with area < 1e-08 m^2                            : 0
    faces with skewness > 2   (internal) or 4   (boundary) : 0
    faces with interpolation weights (0..1)  < 0.1         : 0
    faces with volume ratio of neighbour cells < 0.01      : 0
    faces with face twist < 0.02                           : 0
    faces on cells with determinant < 0.001                : 0

Scaling iteration 1
Moving mesh using displacement scaling : min:0.75  max:1
Checking faces in error :
    non-orthogonality > 60  degrees                        : 7
    faces with face pyramid volume < 1e-14                 : 0
    faces with face-decomposition tet quality < 1e-15      : 0
    faces with concavity > 80  degrees                     : 0
    faces with area < 1e-08 m^2                            : 0
    faces with skewness > 2   (internal) or 4   (boundary) : 0
    faces with interpolation weights (0..1)  < 0.1         : 0
    faces with volume ratio of neighbour cells < 0.01      : 0
    faces with face twist < 0.02                           : 0
    faces on cells with determinant < 0.001                : 0

Scaling iteration 2
Moving mesh using displacement scaling : min:0.5625  max:1
Checking faces in error :
    non-orthogonality > 60  degrees                        : 2
    faces with face pyramid volume < 1e-14                 : 0
    faces with face-decomposition tet quality < 1e-15      : 0
    faces with concavity > 80  degrees                     : 0
    faces with area < 1e-08 m^2                            : 0
    faces with skewness > 2   (internal) or 4   (boundary) : 0
    faces with interpolation weights (0..1)  < 0.1         : 0
    faces with volume ratio of neighbour cells < 0.01      : 0
    faces with face twist < 0.02                           : 0
    faces on cells with determinant < 0.001                : 0

Scaling iteration 3
Moving mesh using displacement scaling : min:0.421875  max:1
Checking faces in error :
    non-orthogonality > 60  degrees                        : 1
    faces with face pyramid volume < 1e-14                 : 0
    faces with face-decomposition tet quality < 1e-15      : 0
    faces with concavity > 80  degrees                     : 0
    faces with area < 1e-08 m^2                            : 0
    faces with skewness > 2   (internal) or 4   (boundary) : 0
    faces with interpolation weights (0..1)  < 0.1         : 0
    faces with volume ratio of neighbour cells < 0.01      : 0
    faces with face twist < 0.02                           : 0
    faces on cells with determinant < 0.001                : 0

Scaling iteration 4
Moving mesh using displacement scaling : min:0.316406  max:1
Checking faces in error :
    non-orthogonality > 60  degrees                        : 1
    faces with face pyramid volume < 1e-14                 : 0
    faces with face-decomposition tet quality < 1e-15      : 0
    faces with concavity > 80  degrees                     : 0
    faces with area < 1e-08 m^2                            : 0
    faces with skewness > 2   (internal) or 4   (boundary) : 0
    faces with interpolation weights (0..1)  < 0.1         : 0
    faces with volume ratio of neighbour cells < 0.01      : 0
    faces with face twist < 0.02                           : 0
    faces on cells with determinant < 0.001                : 0

Scaling iteration 5
Moving mesh using displacement scaling : min:0.237305  max:1
Checking faces in error :
    non-orthogonality > 60  degrees                        : 1
    faces with face pyramid volume < 1e-14                 : 0
    faces with face-decomposition tet quality < 1e-15      : 0
    faces with concavity > 80  degrees                     : 0
    faces with area < 1e-08 m^2                            : 0
    faces with skewness > 2   (internal) or 4   (boundary) : 0
    faces with interpolation weights (0..1)  < 0.1         : 0
    faces with volume ratio of neighbour cells < 0.01      : 0
    faces with face twist < 0.02                           : 0
    faces on cells with determinant < 0.001                : 0

Scaling iteration 6
Moving mesh using displacement scaling : min:0.177979  max:1
Checking faces in error :
    non-orthogonality > 60  degrees                        : 1
    faces with face pyramid volume < 1e-14                 : 0
    faces with face-decomposition tet quality < 1e-15      : 0
    faces with concavity > 80  degrees                     : 0
    faces with area < 1e-08 m^2                            : 0
    faces with skewness > 2   (internal) or 4   (boundary) : 0
    faces with interpolation weights (0..1)  < 0.1         : 0
    faces with volume ratio of neighbour cells < 0.01      : 0
    faces with face twist < 0.02                           : 0
    faces on cells with determinant < 0.001                : 0

Scaling iteration 7
Moving mesh using displacement scaling : min:0.133484  max:1
Checking faces in error :
    non-orthogonality > 60  degrees                        : 1
    faces with face pyramid volume < 1e-14                 : 0
    faces with face-decomposition tet quality < 1e-15      : 0
    faces with concavity > 80  degrees                     : 0
    faces with area < 1e-08 m^2                            : 0
    faces with skewness > 2   (internal) or 4   (boundary) : 0
    faces with interpolation weights (0..1)  < 0.1         : 0
    faces with volume ratio of neighbour cells < 0.01      : 0
    faces with face twist < 0.02                           : 0
    faces on cells with determinant < 0.001                : 0

Scaling iteration 8
Moving mesh using displacement scaling : min:0.100113  max:1
Checking faces in error :
    non-orthogonality > 60  degrees                        : 1
    faces with face pyramid volume < 1e-14                 : 0
    faces with face-decomposition tet quality < 1e-15      : 0
    faces with concavity > 80  degrees                     : 0
    faces with area < 1e-08 m^2                            : 0
    faces with skewness > 2   (internal) or 4   (boundary) : 0
    faces with interpolation weights (0..1)  < 0.1         : 0
    faces with volume ratio of neighbour cells < 0.01      : 0
    faces with face twist < 0.02                           : 0
    faces on cells with determinant < 0.001                : 0

Scaling iteration 9
Moving mesh using displacement scaling : min:0.0750847  max:1
Checking faces in error :
    non-orthogonality > 60  degrees                        : 1
    faces with face pyramid volume < 1e-14                 : 0
    faces with face-decomposition tet quality < 1e-15      : 0
    faces with concavity > 80  degrees                     : 0
    faces with area < 1e-08 m^2                            : 0
    faces with skewness > 2   (internal) or 4   (boundary) : 0
    faces with interpolation weights (0..1)  < 0.1         : 0
    faces with volume ratio of neighbour cells < 0.01      : 0
    faces with face twist < 0.02                           : 0
    faces on cells with determinant < 0.001                : 0

Scaling iteration 10
Moving mesh using displacement scaling : min:0.0563135  max:1
Checking faces in error :
    non-orthogonality > 60  degrees                        : 1
    faces with face pyramid volume < 1e-14                 : 0
    faces with face-decomposition tet quality < 1e-15      : 0
    faces with concavity > 80  degrees                     : 0
    faces with area < 1e-08 m^2                            : 0
    faces with skewness > 2   (internal) or 4   (boundary) : 0
    faces with interpolation weights (0..1)  < 0.1         : 0
    faces with volume ratio of neighbour cells < 0.01      : 0
    faces with face twist < 0.02                           : 0
    faces on cells with determinant < 0.001                : 0

Scaling iteration 11
Moving mesh using displacement scaling : min:0.0422351  max:1
Checking faces in error :
    non-orthogonality > 60  degrees                        : 1
    faces with face pyramid volume < 1e-14                 : 0
    faces with face-decomposition tet quality < 1e-15      : 0
    faces with concavity > 80  degrees                     : 0
    faces with area < 1e-08 m^2                            : 0
    faces with skewness > 2   (internal) or 4   (boundary) : 0
    faces with interpolation weights (0..1)  < 0.1         : 0
    faces with volume ratio of neighbour cells < 0.01      : 0
    faces with face twist < 0.02                           : 0
    faces on cells with determinant < 0.001                : 0

Scaling iteration 12
Moving mesh using displacement scaling : min:0.0316764  max:1
Checking faces in error :
    non-orthogonality > 60  degrees                        : 1
    faces with face pyramid volume < 1e-14                 : 0
    faces with face-decomposition tet quality < 1e-15      : 0
    faces with concavity > 80  degrees                     : 0
    faces with area < 1e-08 m^2                            : 0
    faces with skewness > 2   (internal) or 4   (boundary) : 0
    faces with interpolation weights (0..1)  < 0.1         : 0
    faces with volume ratio of neighbour cells < 0.01      : 0
    faces with face twist < 0.02                           : 0
    faces on cells with determinant < 0.001                : 0

Scaling iteration 13
Moving mesh using displacement scaling : min:0.0237573  max:1
Checking faces in error :
    non-orthogonality > 60  degrees                        : 1
    faces with face pyramid volume < 1e-14                 : 0
    faces with face-decomposition tet quality < 1e-15      : 0
    faces with concavity > 80  degrees                     : 0
    faces with area < 1e-08 m^2                            : 0
    faces with skewness > 2   (internal) or 4   (boundary) : 0
    faces with interpolation weights (0..1)  < 0.1         : 0
    faces with volume ratio of neighbour cells < 0.01      : 0
    faces with face twist < 0.02                           : 0
    faces on cells with determinant < 0.001                : 0

Scaling iteration 14
Moving mesh using displacement scaling : min:0.0178179  max:1
Checking faces in error :
    non-orthogonality > 60  degrees                        : 1
    faces with face pyramid volume < 1e-14                 : 0
    faces with face-decomposition tet quality < 1e-15      : 0
    faces with concavity > 80  degrees                     : 0
    faces with area < 1e-08 m^2                            : 0
    faces with skewness > 2   (internal) or 4   (boundary) : 0
    faces with interpolation weights (0..1)  < 0.1         : 0
    faces with volume ratio of neighbour cells < 0.01      : 0
    faces with face twist < 0.02                           : 0
    faces on cells with determinant < 0.001                : 0

Scaling iteration 15
Moving mesh using displacement scaling : min:0.0133635  max:1
Checking faces in error :
    non-orthogonality > 60  degrees                        : 1
    faces with face pyramid volume < 1e-14                 : 0
    faces with face-decomposition tet quality < 1e-15      : 0
    faces with concavity > 80  degrees                     : 0
    faces with area < 1e-08 m^2                            : 0
    faces with skewness > 2   (internal) or 4   (boundary) : 0
    faces with interpolation weights (0..1)  < 0.1         : 0
    faces with volume ratio of neighbour cells < 0.01      : 0
    faces with face twist < 0.02                           : 0
    faces on cells with determinant < 0.001                : 0

Scaling iteration 16
Moving mesh using displacement scaling : min:0.0100226  max:1
Checking faces in error :
    non-orthogonality > 60  degrees                        : 0
    faces with face pyramid volume < 1e-14                 : 0
    faces with face-decomposition tet quality < 1e-15      : 0
    faces with concavity > 80  degrees                     : 0
    faces with area < 1e-08 m^2                            : 0
    faces with skewness > 2   (internal) or 4   (boundary) : 0
    faces with interpolation weights (0..1)  < 0.1         : 0
    faces with volume ratio of neighbour cells < 0.01      : 0
    faces with face twist < 0.02                           : 0
    faces on cells with determinant < 0.001                : 0
Successfully moved mesh

Smoothing iteration 3
Found 0 non-manifold point(s).

Scaling iteration 0
Moving mesh using displacement scaling : min:1  max:1
Checking faces in error :
    non-orthogonality > 60  degrees                        : 18
    faces with face pyramid volume < 1e-14                 : 0
    faces with face-decomposition tet quality < 1e-15      : 3
    faces with concavity > 80  degrees                     : 0
    faces with area < 1e-08 m^2                            : 3
    faces with skewness > 2   (internal) or 4   (boundary) : 0
    faces with interpolation weights (0..1)  < 0.1         : 4
    faces with volume ratio of neighbour cells < 0.01      : 0
    faces with face twist < 0.02                           : 0
    faces on cells with determinant < 0.001                : 0

Scaling iteration 1
Moving mesh using displacement scaling : min:0.75  max:1
Checking faces in error :
    non-orthogonality > 60  degrees                        : 16
    faces with face pyramid volume < 1e-14                 : 0
    faces with face-decomposition tet quality < 1e-15      : 1
    faces with concavity > 80  degrees                     : 0
    faces with area < 1e-08 m^2                            : 0
    faces with skewness > 2   (internal) or 4   (boundary) : 0
    faces with interpolation weights (0..1)  < 0.1         : 1
    faces with volume ratio of neighbour cells < 0.01      : 0
    faces with face twist < 0.02                           : 0
    faces on cells with determinant < 0.001                : 0

Scaling iteration 2
Moving mesh using displacement scaling : min:0.5625  max:1
Checking faces in error :
    non-orthogonality > 60  degrees                        : 13
    faces with face pyramid volume < 1e-14                 : 0
    faces with face-decomposition tet quality < 1e-15      : 1
    faces with concavity > 80  degrees                     : 0
    faces with area < 1e-08 m^2                            : 0
    faces with skewness > 2   (internal) or 4   (boundary) : 0
    faces with interpolation weights (0..1)  < 0.1         : 0
    faces with volume ratio of neighbour cells < 0.01      : 0
    faces with face twist < 0.02                           : 0
    faces on cells with determinant < 0.001                : 0

Scaling iteration 3
Moving mesh using displacement scaling : min:0.421875  max:1
Checking faces in error :
    non-orthogonality > 60  degrees                        : 12
    faces with face pyramid volume < 1e-14                 : 0
    faces with face-decomposition tet quality < 1e-15      : 1
    faces with concavity > 80  degrees                     : 0
    faces with area < 1e-08 m^2                            : 0
    faces with skewness > 2   (internal) or 4   (boundary) : 0
    faces with interpolation weights (0..1)  < 0.1         : 0
    faces with volume ratio of neighbour cells < 0.01      : 0
    faces with face twist < 0.02                           : 0
    faces on cells with determinant < 0.001                : 0

Scaling iteration 4
Moving mesh using displacement scaling : min:0.316406  max:1
Checking faces in error :
    non-orthogonality > 60  degrees                        : 12
    faces with face pyramid volume < 1e-14                 : 0
    faces with face-decomposition tet quality < 1e-15      : 1
    faces with concavity > 80  degrees                     : 0
    faces with area < 1e-08 m^2                            : 0
    faces with skewness > 2   (internal) or 4   (boundary) : 0
    faces with interpolation weights (0..1)  < 0.1         : 0
    faces with volume ratio of neighbour cells < 0.01      : 0
    faces with face twist < 0.02                           : 0
    faces on cells with determinant < 0.001                : 0

Scaling iteration 5
Moving mesh using displacement scaling : min:0.237305  max:1
Checking faces in error :
    non-orthogonality > 60  degrees                        : 11
    faces with face pyramid volume < 1e-14                 : 0
    faces with face-decomposition tet quality < 1e-15      : 1
    faces with concavity > 80  degrees                     : 0
    faces with area < 1e-08 m^2                            : 0
    faces with skewness > 2   (internal) or 4   (boundary) : 0
    faces with interpolation weights (0..1)  < 0.1         : 0
    faces with volume ratio of neighbour cells < 0.01      : 0
    faces with face twist < 0.02                           : 0
    faces on cells with determinant < 0.001                : 0

Scaling iteration 6
Moving mesh using displacement scaling : min:0.177979  max:1
Checking faces in error :
    non-orthogonality > 60  degrees                        : 7
    faces with face pyramid volume < 1e-14                 : 0
    faces with face-decomposition tet quality < 1e-15      : 0
    faces with concavity > 80  degrees                     : 0
    faces with area < 1e-08 m^2                            : 1
    faces with skewness > 2   (internal) or 4   (boundary) : 0
    faces with interpolation weights (0..1)  < 0.1         : 0
    faces with volume ratio of neighbour cells < 0.01      : 0
    faces with face twist < 0.02                           : 0
    faces on cells with determinant < 0.001                : 0

Scaling iteration 7
Moving mesh using displacement scaling : min:0.133484  max:0.999999
Checking faces in error :
    non-orthogonality > 60  degrees                        : 6
    faces with face pyramid volume < 1e-14                 : 0
    faces with face-decomposition tet quality < 1e-15      : 0
    faces with concavity > 80  degrees                     : 0
    faces with area < 1e-08 m^2                            : 0
    faces with skewness > 2   (internal) or 4   (boundary) : 0
    faces with interpolation weights (0..1)  < 0.1         : 0
    faces with volume ratio of neighbour cells < 0.01      : 0
    faces with face twist < 0.02                           : 0
    faces on cells with determinant < 0.001                : 0

Scaling iteration 8
Moving mesh using displacement scaling : min:0.100113  max:0.999997
Checking faces in error :
    non-orthogonality > 60  degrees                        : 4
    faces with face pyramid volume < 1e-14                 : 0
    faces with face-decomposition tet quality < 1e-15      : 0
    faces with concavity > 80  degrees                     : 0
    faces with area < 1e-08 m^2                            : 0
    faces with skewness > 2   (internal) or 4   (boundary) : 0
    faces with interpolation weights (0..1)  < 0.1         : 0
    faces with volume ratio of neighbour cells < 0.01      : 0
    faces with face twist < 0.02                           : 0
    faces on cells with determinant < 0.001                : 0

Scaling iteration 9
Moving mesh using displacement scaling : min:0.0750847  max:0.999992
Checking faces in error :
    non-orthogonality > 60  degrees                        : 4
    faces with face pyramid volume < 1e-14                 : 0
    faces with face-decomposition tet quality < 1e-15      : 0
    faces with concavity > 80  degrees                     : 0
    faces with area < 1e-08 m^2                            : 0
    faces with skewness > 2   (internal) or 4   (boundary) : 0
    faces with interpolation weights (0..1)  < 0.1         : 0
    faces with volume ratio of neighbour cells < 0.01      : 0
    faces with face twist < 0.02                           : 0
    faces on cells with determinant < 0.001                : 0

Scaling iteration 10
Moving mesh using displacement scaling : min:0.0563135  max:0.999983
Checking faces in error :
    non-orthogonality > 60  degrees                        : 4
    faces with face pyramid volume < 1e-14                 : 0
    faces with face-decomposition tet quality < 1e-15      : 0
    faces with concavity > 80  degrees                     : 0
    faces with area < 1e-08 m^2                            : 0
    faces with skewness > 2   (internal) or 4   (boundary) : 0
    faces with interpolation weights (0..1)  < 0.1         : 0
    faces with volume ratio of neighbour cells < 0.01      : 0
    faces with face twist < 0.02                           : 0
    faces on cells with determinant < 0.001                : 0

Scaling iteration 11
Moving mesh using displacement scaling : min:0.0422351  max:0.999968
Checking faces in error :
    non-orthogonality > 60  degrees                        : 4
    faces with face pyramid volume < 1e-14                 : 0
    faces with face-decomposition tet quality < 1e-15      : 0
    faces with concavity > 80  degrees                     : 0
    faces with area < 1e-08 m^2                            : 0
    faces with skewness > 2   (internal) or 4   (boundary) : 0
    faces with interpolation weights (0..1)  < 0.1         : 0
    faces with volume ratio of neighbour cells < 0.01      : 0
    faces with face twist < 0.02                           : 0
    faces on cells with determinant < 0.001                : 0

Scaling iteration 12
Moving mesh using displacement scaling : min:0.0316764  max:0.999943
Checking faces in error :
    non-orthogonality > 60  degrees                        : 4
    faces with face pyramid volume < 1e-14                 : 0
    faces with face-decomposition tet quality < 1e-15      : 0
    faces with concavity > 80  degrees                     : 0
    faces with area < 1e-08 m^2                            : 0
    faces with skewness > 2   (internal) or 4   (boundary) : 0
    faces with interpolation weights (0..1)  < 0.1         : 0
    faces with volume ratio of neighbour cells < 0.01      : 0
    faces with face twist < 0.02                           : 0
    faces on cells with determinant < 0.001                : 0

Scaling iteration 13
Moving mesh using displacement scaling : min:0.0237573  max:0.999908
Checking faces in error :
    non-orthogonality > 60  degrees                        : 4
    faces with face pyramid volume < 1e-14                 : 0
    faces with face-decomposition tet quality < 1e-15      : 0
    faces with concavity > 80  degrees                     : 0
    faces with area < 1e-08 m^2                            : 0
    faces with skewness > 2   (internal) or 4   (boundary) : 0
    faces with interpolation weights (0..1)  < 0.1         : 0
    faces with volume ratio of neighbour cells < 0.01      : 0
    faces with face twist < 0.02                           : 0
    faces on cells with determinant < 0.001                : 0

Scaling iteration 14
Moving mesh using displacement scaling : min:0.0178179  max:0.99986
Checking faces in error :
    non-orthogonality > 60  degrees                        : 3
    faces with face pyramid volume < 1e-14                 : 0
    faces with face-decomposition tet quality < 1e-15      : 0
    faces with concavity > 80  degrees                     : 0
    faces with area < 1e-08 m^2                            : 0
    faces with skewness > 2   (internal) or 4   (boundary) : 0
    faces with interpolation weights (0..1)  < 0.1         : 0
    faces with volume ratio of neighbour cells < 0.01      : 0
    faces with face twist < 0.02                           : 0
    faces on cells with determinant < 0.001                : 0

Scaling iteration 15
Moving mesh using displacement scaling : min:0.0133635  max:0.999796
Checking faces in error :
    non-orthogonality > 60  degrees                        : 2
    faces with face pyramid volume < 1e-14                 : 0
    faces with face-decomposition tet quality < 1e-15      : 0
    faces with concavity > 80  degrees                     : 0
    faces with area < 1e-08 m^2                            : 0
    faces with skewness > 2   (internal) or 4   (boundary) : 0
    faces with interpolation weights (0..1)  < 0.1         : 0
    faces with volume ratio of neighbour cells < 0.01      : 0
    faces with face twist < 0.02                           : 0
    faces on cells with determinant < 0.001                : 0

Scaling iteration 16
Moving mesh using displacement scaling : min:0.0100226  max:0.999715
Checking faces in error :
    non-orthogonality > 60  degrees                        : 2
    faces with face pyramid volume < 1e-14                 : 0
    faces with face-decomposition tet quality < 1e-15      : 0
    faces with concavity > 80  degrees                     : 0
    faces with area < 1e-08 m^2                            : 0
    faces with skewness > 2   (internal) or 4   (boundary) : 0
    faces with interpolation weights (0..1)  < 0.1         : 0
    faces with volume ratio of neighbour cells < 0.01      : 0
    faces with face twist < 0.02                           : 0
    faces on cells with determinant < 0.001                : 0

Scaling iteration 17
Moving mesh using displacement scaling : min:0.00751695  max:0.999615
Checking faces in error :
    non-orthogonality > 60  degrees                        : 2
    faces with face pyramid volume < 1e-14                 : 0
    faces with face-decomposition tet quality < 1e-15      : 0
    faces with concavity > 80  degrees                     : 0
    faces with area < 1e-08 m^2                            : 0
    faces with skewness > 2   (internal) or 4   (boundary) : 0
    faces with interpolation weights (0..1)  < 0.1         : 0
    faces with volume ratio of neighbour cells < 0.01      : 0
    faces with face twist < 0.02                           : 0
    faces on cells with determinant < 0.001                : 0

Scaling iteration 18
Moving mesh using displacement scaling : min:0.00563771  max:0.999496
Checking faces in error :
    non-orthogonality > 60  degrees                        : 2
    faces with face pyramid volume < 1e-14                 : 0
    faces with face-decomposition tet quality < 1e-15      : 0
    faces with concavity > 80  degrees                     : 0
    faces with area < 1e-08 m^2                            : 0
    faces with skewness > 2   (internal) or 4   (boundary) : 0
    faces with interpolation weights (0..1)  < 0.1         : 0
    faces with volume ratio of neighbour cells < 0.01      : 0
    faces with face twist < 0.02                           : 0
    faces on cells with determinant < 0.001                : 0

Scaling iteration 19
Moving mesh using displacement scaling : min:0.00422828  max:0.999355
Checking faces in error :
    non-orthogonality > 60  degrees                        : 2
    faces with face pyramid volume < 1e-14                 : 0
    faces with face-decomposition tet quality < 1e-15      : 0
    faces with concavity > 80  degrees                     : 0
    faces with area < 1e-08 m^2                            : 0
    faces with skewness > 2   (internal) or 4   (boundary) : 0
    faces with interpolation weights (0..1)  < 0.1         : 0
    faces with volume ratio of neighbour cells < 0.01      : 0
    faces with face twist < 0.02                           : 0
    faces on cells with determinant < 0.001                : 0

Scaling iteration 20
Moving mesh using displacement scaling : min:0.00317121  max:0.999192
Checking faces in error :
    non-orthogonality > 60  degrees                        : 2
    faces with face pyramid volume < 1e-14                 : 0
    faces with face-decomposition tet quality < 1e-15      : 0
    faces with concavity > 80  degrees                     : 0
    faces with area < 1e-08 m^2                            : 0
    faces with skewness > 2   (internal) or 4   (boundary) : 0
    faces with interpolation weights (0..1)  < 0.1         : 0
    faces with volume ratio of neighbour cells < 0.01      : 0
    faces with face twist < 0.02                           : 0
    faces on cells with determinant < 0.001                : 0

Scaling iteration 21
Moving mesh using displacement scaling : min:0.00237841  max:0.999007
Checking faces in error :
    non-orthogonality > 60  degrees                        : 2
    faces with face pyramid volume < 1e-14                 : 0
    faces with face-decomposition tet quality < 1e-15      : 0
    faces with concavity > 80  degrees                     : 0
    faces with area < 1e-08 m^2                            : 0
    faces with skewness > 2   (internal) or 4   (boundary) : 0
    faces with interpolation weights (0..1)  < 0.1         : 0
    faces with volume ratio of neighbour cells < 0.01      : 0
    faces with face twist < 0.02                           : 0
    faces on cells with determinant < 0.001                : 0

Scaling iteration 22
Moving mesh using displacement scaling : min:0.00178381  max:0.998797
Checking faces in error :
    non-orthogonality > 60  degrees                        : 2
    faces with face pyramid volume < 1e-14                 : 0
    faces with face-decomposition tet quality < 1e-15      : 0
    faces with concavity > 80  degrees                     : 0
    faces with area < 1e-08 m^2                            : 0
    faces with skewness > 2   (internal) or 4   (boundary) : 0
    faces with interpolation weights (0..1)  < 0.1         : 0
    faces with volume ratio of neighbour cells < 0.01      : 0
    faces with face twist < 0.02                           : 0
    faces on cells with determinant < 0.001                : 0

Scaling iteration 23
Moving mesh using displacement scaling : min:0.00133786  max:0.998564
Checking faces in error :
    non-orthogonality > 60  degrees                        : 2
    faces with face pyramid volume < 1e-14                 : 0
    faces with face-decomposition tet quality < 1e-15      : 0
    faces with concavity > 80  degrees                     : 0
    faces with area < 1e-08 m^2                            : 0
    faces with skewness > 2   (internal) or 4   (boundary) : 0
    faces with interpolation weights (0..1)  < 0.1         : 0
    faces with volume ratio of neighbour cells < 0.01      : 0
    faces with face twist < 0.02                           : 0
    faces on cells with determinant < 0.001                : 0

Scaling iteration 24
Moving mesh using displacement scaling : min:0.00100339  max:0.998306
Checking faces in error :
    non-orthogonality > 60  degrees                        : 2
    faces with face pyramid volume < 1e-14                 : 0
    faces with face-decomposition tet quality < 1e-15      : 0
    faces with concavity > 80  degrees                     : 0
    faces with area < 1e-08 m^2                            : 0
    faces with skewness > 2   (internal) or 4   (boundary) : 0
    faces with interpolation weights (0..1)  < 0.1         : 0
    faces with volume ratio of neighbour cells < 0.01      : 0
    faces with face twist < 0.02                           : 0
    faces on cells with determinant < 0.001                : 0

Scaling iteration 25
Displacement scaling for error reduction set to 0.
Moving mesh using displacement scaling : min:0.000752543  max:0.998024
Checking faces in error :
    non-orthogonality > 60  degrees                        : 2
    faces with face pyramid volume < 1e-14                 : 0
    faces with face-decomposition tet quality < 1e-15      : 0
    faces with concavity > 80  degrees                     : 0
    faces with area < 1e-08 m^2                            : 0
    faces with skewness > 2   (internal) or 4   (boundary) : 0
    faces with interpolation weights (0..1)  < 0.1         : 0
    faces with volume ratio of neighbour cells < 0.01      : 0
    faces with face twist < 0.02                           : 0
    faces on cells with determinant < 0.001                : 0

Scaling iteration 26
Moving mesh using displacement scaling : min:0  max:0.997718
Checking faces in error :
    non-orthogonality > 60  degrees                        : 0
    faces with face pyramid volume < 1e-14                 : 0
    faces with face-decomposition tet quality < 1e-15      : 0
    faces with concavity > 80  degrees                     : 0
    faces with area < 1e-08 m^2                            : 0
    faces with skewness > 2   (internal) or 4   (boundary) : 0
    faces with interpolation weights (0..1)  < 0.1         : 0
    faces with volume ratio of neighbour cells < 0.01      : 0
    faces with face twist < 0.02                           : 0
    faces on cells with determinant < 0.001                : 0
Successfully moved mesh

Smoothing iteration 4
Found 0 non-manifold point(s).

Scaling iteration 0
Moving mesh using displacement scaling : min:1  max:1
Checking faces in error :
    non-orthogonality > 60  degrees                        : 41
    faces with face pyramid volume < 1e-14                 : 0
    faces with face-decomposition tet quality < 1e-15      : 8
    faces with concavity > 80  degrees                     : 0
    faces with area < 1e-08 m^2                            : 68
    faces with skewness > 2   (internal) or 4   (boundary) : 0
    faces with interpolation weights (0..1)  < 0.1         : 5
    faces with volume ratio of neighbour cells < 0.01      : 0
    faces with face twist < 0.02                           : 0
    faces on cells with determinant < 0.001                : 0

Scaling iteration 1
Moving mesh using displacement scaling : min:0.75  max:1
Checking faces in error :
    non-orthogonality > 60  degrees                        : 23
    faces with face pyramid volume < 1e-14                 : 0
    faces with face-decomposition tet quality < 1e-15      : 3
    faces with concavity > 80  degrees                     : 0
    faces with area < 1e-08 m^2                            : 48
    faces with skewness > 2   (internal) or 4   (boundary) : 0
    faces with interpolation weights (0..1)  < 0.1         : 5
    faces with volume ratio of neighbour cells < 0.01      : 0
    faces with face twist < 0.02                           : 0
    faces on cells with determinant < 0.001                : 0

Scaling iteration 2
Moving mesh using displacement scaling : min:0.5625  max:1
Checking faces in error :
    non-orthogonality > 60  degrees                        : 18
    faces with face pyramid volume < 1e-14                 : 0
    faces with face-decomposition tet quality < 1e-15      : 1
    faces with concavity > 80  degrees                     : 0
    faces with area < 1e-08 m^2                            : 35
    faces with skewness > 2   (internal) or 4   (boundary) : 0
    faces with interpolation weights (0..1)  < 0.1         : 5
    faces with volume ratio of neighbour cells < 0.01      : 0
    faces with face twist < 0.02                           : 0
    faces on cells with determinant < 0.001                : 0

Scaling iteration 3
Moving mesh using displacement scaling : min:0.421875  max:1
Checking faces in error :
    non-orthogonality > 60  degrees                        : 15
    faces with face pyramid volume < 1e-14                 : 0
    faces with face-decomposition tet quality < 1e-15      : 2
    faces with concavity > 80  degrees                     : 0
    faces with area < 1e-08 m^2                            : 15
    faces with skewness > 2   (internal) or 4   (boundary) : 0
    faces with interpolation weights (0..1)  < 0.1         : 4
    faces with volume ratio of neighbour cells < 0.01      : 0
    faces with face twist < 0.02                           : 0
    faces on cells with determinant < 0.001                : 0

Scaling iteration 4
Moving mesh using displacement scaling : min:0.316406  max:0.999999
Checking faces in error :
    non-orthogonality > 60  degrees                        : 14
    faces with face pyramid volume < 1e-14                 : 0
    faces with face-decomposition tet quality < 1e-15      : 1
    faces with concavity > 80  degrees                     : 0
    faces with area < 1e-08 m^2                            : 10
    faces with skewness > 2   (internal) or 4   (boundary) : 0
    faces with interpolation weights (0..1)  < 0.1         : 4
    faces with volume ratio of neighbour cells < 0.01      : 0
    faces with face twist < 0.02                           : 0
    faces on cells with determinant < 0.001                : 0

Scaling iteration 5
Moving mesh using displacement scaling : min:0.237305  max:0.999992
Checking faces in error :
    non-orthogonality > 60  degrees                        : 13
    faces with face pyramid volume < 1e-14                 : 0
    faces with face-decomposition tet quality < 1e-15      : 1
    faces with concavity > 80  degrees                     : 0
    faces with area < 1e-08 m^2                            : 8
    faces with skewness > 2   (internal) or 4   (boundary) : 0
    faces with interpolation weights (0..1)  < 0.1         : 4
    faces with volume ratio of neighbour cells < 0.01      : 0
    faces with face twist < 0.02                           : 0
    faces on cells with determinant < 0.001                : 0

Scaling iteration 6
Moving mesh using displacement scaling : min:0.177979  max:0.999964
Checking faces in error :
    non-orthogonality > 60  degrees                        : 12
    faces with face pyramid volume < 1e-14                 : 0
    faces with face-decomposition tet quality < 1e-15      : 1
    faces with concavity > 80  degrees                     : 0
    faces with area < 1e-08 m^2                            : 8
    faces with skewness > 2   (internal) or 4   (boundary) : 0
    faces with interpolation weights (0..1)  < 0.1         : 3
    faces with volume ratio of neighbour cells < 0.01      : 0
    faces with face twist < 0.02                           : 0
    faces on cells with determinant < 0.001                : 0

Scaling iteration 7
Moving mesh using displacement scaling : min:0.133484  max:0.999889
Checking faces in error :
    non-orthogonality > 60  degrees                        : 12
    faces with face pyramid volume < 1e-14                 : 0
    faces with face-decomposition tet quality < 1e-15      : 1
    faces with concavity > 80  degrees                     : 0
    faces with area < 1e-08 m^2                            : 8
    faces with skewness > 2   (internal) or 4   (boundary) : 0
    faces with interpolation weights (0..1)  < 0.1         : 3
    faces with volume ratio of neighbour cells < 0.01      : 0
    faces with face twist < 0.02                           : 0
    faces on cells with determinant < 0.001                : 0

Scaling iteration 8
Moving mesh using displacement scaling : min:0.100113  max:0.999731
Checking faces in error :
    non-orthogonality > 60  degrees                        : 11
    faces with face pyramid volume < 1e-14                 : 0
    faces with face-decomposition tet quality < 1e-15      : 1
    faces with concavity > 80  degrees                     : 0
    faces with area < 1e-08 m^2                            : 0
    faces with skewness > 2   (internal) or 4   (boundary) : 0
    faces with interpolation weights (0..1)  < 0.1         : 1
    faces with volume ratio of neighbour cells < 0.01      : 0
    faces with face twist < 0.02                           : 0
    faces on cells with determinant < 0.001                : 0

Scaling iteration 9
Moving mesh using displacement scaling : min:0.0750847  max:0.999453
Checking faces in error :
    non-orthogonality > 60  degrees                        : 11
    faces with face pyramid volume < 1e-14                 : 0
    faces with face-decomposition tet quality < 1e-15      : 1
    faces with concavity > 80  degrees                     : 0
    faces with area < 1e-08 m^2                            : 0
    faces with skewness > 2   (internal) or 4   (boundary) : 0
    faces with interpolation weights (0..1)  < 0.1         : 1
    faces with volume ratio of neighbour cells < 0.01      : 0
    faces with face twist < 0.02                           : 0
    faces on cells with determinant < 0.001                : 0

Scaling iteration 10
Moving mesh using displacement scaling : min:0.0563135  max:0.999016
Checking faces in error :
    non-orthogonality > 60  degrees                        : 11
    faces with face pyramid volume < 1e-14                 : 0
    faces with face-decomposition tet quality < 1e-15      : 1
    faces with concavity > 80  degrees                     : 0
    faces with area < 1e-08 m^2                            : 0
    faces with skewness > 2   (internal) or 4   (boundary) : 0
    faces with interpolation weights (0..1)  < 0.1         : 1
    faces with volume ratio of neighbour cells < 0.01      : 0
    faces with face twist < 0.02                           : 0
    faces on cells with determinant < 0.001                : 0

Scaling iteration 11
Moving mesh using displacement scaling : min:0.0422351  max:0.998386
Checking faces in error :
    non-orthogonality > 60  degrees                        : 11
    faces with face pyramid volume < 1e-14                 : 0
    faces with face-decomposition tet quality < 1e-15      : 1
    faces with concavity > 80  degrees                     : 0
    faces with area < 1e-08 m^2                            : 0
    faces with skewness > 2   (internal) or 4   (boundary) : 0
    faces with interpolation weights (0..1)  < 0.1         : 0
    faces with volume ratio of neighbour cells < 0.01      : 0
    faces with face twist < 0.02                           : 0
    faces on cells with determinant < 0.001                : 0

Scaling iteration 12
Moving mesh using displacement scaling : min:0.0316764  max:0.997536
Checking faces in error :
    non-orthogonality > 60  degrees                        : 10
    faces with face pyramid volume < 1e-14                 : 0
    faces with face-decomposition tet quality < 1e-15      : 1
    faces with concavity > 80  degrees                     : 0
    faces with area < 1e-08 m^2                            : 0
    faces with skewness > 2   (internal) or 4   (boundary) : 0
    faces with interpolation weights (0..1)  < 0.1         : 0
    faces with volume ratio of neighbour cells < 0.01      : 0
    faces with face twist < 0.02                           : 0
    faces on cells with determinant < 0.001                : 0

Scaling iteration 13
Moving mesh using displacement scaling : min:0.0237573  max:0.996444
Checking faces in error :
    non-orthogonality > 60  degrees                        : 10
    faces with face pyramid volume < 1e-14                 : 0
    faces with face-decomposition tet quality < 1e-15      : 1
    faces with concavity > 80  degrees                     : 0
    faces with area < 1e-08 m^2                            : 0
    faces with skewness > 2   (internal) or 4   (boundary) : 0
    faces with interpolation weights (0..1)  < 0.1         : 0
    faces with volume ratio of neighbour cells < 0.01      : 0
    faces with face twist < 0.02                           : 0
    faces on cells with determinant < 0.001                : 0

Scaling iteration 14
Moving mesh using displacement scaling : min:0.0178179  max:0.995093
Checking faces in error :
    non-orthogonality > 60  degrees                        : 9
    faces with face pyramid volume < 1e-14                 : 0
    faces with face-decomposition tet quality < 1e-15      : 1
    faces with concavity > 80  degrees                     : 0
    faces with area < 1e-08 m^2                            : 0
    faces with skewness > 2   (internal) or 4   (boundary) : 0
    faces with interpolation weights (0..1)  < 0.1         : 0
    faces with volume ratio of neighbour cells < 0.01      : 0
    faces with face twist < 0.02                           : 0
    faces on cells with determinant < 0.001                : 0

Scaling iteration 15
Moving mesh using displacement scaling : min:0.0133635  max:0.993473
Checking faces in error :
    non-orthogonality > 60  degrees                        : 8
    faces with face pyramid volume < 1e-14                 : 0
    faces with face-decomposition tet quality < 1e-15      : 1
    faces with concavity > 80  degrees                     : 0
    faces with area < 1e-08 m^2                            : 0
    faces with skewness > 2   (internal) or 4   (boundary) : 0
    faces with interpolation weights (0..1)  < 0.1         : 0
    faces with volume ratio of neighbour cells < 0.01      : 0
    faces with face twist < 0.02                           : 0
    faces on cells with determinant < 0.001                : 0

Scaling iteration 16
Moving mesh using displacement scaling : min:0.0100226  max:0.99158
Checking faces in error :
    non-orthogonality > 60  degrees                        : 7
    faces with face pyramid volume < 1e-14                 : 0
    faces with face-decomposition tet quality < 1e-15      : 1
    faces with concavity > 80  degrees                     : 0
    faces with area < 1e-08 m^2                            : 0
    faces with skewness > 2   (internal) or 4   (boundary) : 0
    faces with interpolation weights (0..1)  < 0.1         : 0
    faces with volume ratio of neighbour cells < 0.01      : 0
    faces with face twist < 0.02                           : 0
    faces on cells with determinant < 0.001                : 0

Scaling iteration 17
Moving mesh using displacement scaling : min:0.00751695  max:0.989412
Checking faces in error :
    non-orthogonality > 60  degrees                        : 7
    faces with face pyramid volume < 1e-14                 : 0
    faces with face-decomposition tet quality < 1e-15      : 0
    faces with concavity > 80  degrees                     : 0
    faces with area < 1e-08 m^2                            : 0
    faces with skewness > 2   (internal) or 4   (boundary) : 0
    faces with interpolation weights (0..1)  < 0.1         : 0
    faces with volume ratio of neighbour cells < 0.01      : 0
    faces with face twist < 0.02                           : 0
    faces on cells with determinant < 0.001                : 0

Scaling iteration 18
Moving mesh using displacement scaling : min:0.00563771  max:0.986971
Checking faces in error :
    non-orthogonality > 60  degrees                        : 7
    faces with face pyramid volume < 1e-14                 : 0
    faces with face-decomposition tet quality < 1e-15      : 0
    faces with concavity > 80  degrees                     : 0
    faces with area < 1e-08 m^2                            : 0
    faces with skewness > 2   (internal) or 4   (boundary) : 0
    faces with interpolation weights (0..1)  < 0.1         : 0
    faces with volume ratio of neighbour cells < 0.01      : 0
    faces with face twist < 0.02                           : 0
    faces on cells with determinant < 0.001                : 0

Scaling iteration 19
Moving mesh using displacement scaling : min:0.00422828  max:0.984262
Checking faces in error :
    non-orthogonality > 60  degrees                        : 6
    faces with face pyramid volume < 1e-14                 : 0
    faces with face-decomposition tet quality < 1e-15      : 0
    faces with concavity > 80  degrees                     : 0
    faces with area < 1e-08 m^2                            : 0
    faces with skewness > 2   (internal) or 4   (boundary) : 0
    faces with interpolation weights (0..1)  < 0.1         : 0
    faces with volume ratio of neighbour cells < 0.01      : 0
    faces with face twist < 0.02                           : 0
    faces on cells with determinant < 0.001                : 0

Scaling iteration 20
Moving mesh using displacement scaling : min:0.00317121  max:0.981292
Checking faces in error :
    non-orthogonality > 60  degrees                        : 6
    faces with face pyramid volume < 1e-14                 : 0
    faces with face-decomposition tet quality < 1e-15      : 0
    faces with concavity > 80  degrees                     : 0
    faces with area < 1e-08 m^2                            : 0
    faces with skewness > 2   (internal) or 4   (boundary) : 0
    faces with interpolation weights (0..1)  < 0.1         : 0
    faces with volume ratio of neighbour cells < 0.01      : 0
    faces with face twist < 0.02                           : 0
    faces on cells with determinant < 0.001                : 0

Scaling iteration 21
Moving mesh using displacement scaling : min:0.00237841  max:0.978068
Checking faces in error :
    non-orthogonality > 60  degrees                        : 6
    faces with face pyramid volume < 1e-14                 : 0
    faces with face-decomposition tet quality < 1e-15      : 0
    faces with concavity > 80  degrees                     : 0
    faces with area < 1e-08 m^2                            : 0
    faces with skewness > 2   (internal) or 4   (boundary) : 0
    faces with interpolation weights (0..1)  < 0.1         : 0
    faces with volume ratio of neighbour cells < 0.01      : 0
    faces with face twist < 0.02                           : 0
    faces on cells with determinant < 0.001                : 0

Scaling iteration 22
Moving mesh using displacement scaling : min:0.00178381  max:0.974869
Checking faces in error :
    non-orthogonality > 60  degrees                        : 6
    faces with face pyramid volume < 1e-14                 : 0
    faces with face-decomposition tet quality < 1e-15      : 0
    faces with concavity > 80  degrees                     : 0
    faces with area < 1e-08 m^2                            : 0
    faces with skewness > 2   (internal) or 4   (boundary) : 0
    faces with interpolation weights (0..1)  < 0.1         : 0
    faces with volume ratio of neighbour cells < 0.01      : 0
    faces with face twist < 0.02                           : 0
    faces on cells with determinant < 0.001                : 0

Scaling iteration 23
Moving mesh using displacement scaling : min:0.00133786  max:0.971876
Checking faces in error :
    non-orthogonality > 60  degrees                        : 6
    faces with face pyramid volume < 1e-14                 : 0
    faces with face-decomposition tet quality < 1e-15      : 0
    faces with concavity > 80  degrees                     : 0
    faces with area < 1e-08 m^2                            : 0
    faces with skewness > 2   (internal) or 4   (boundary) : 0
    faces with interpolation weights (0..1)  < 0.1         : 0
    faces with volume ratio of neighbour cells < 0.01      : 0
    faces with face twist < 0.02                           : 0
    faces on cells with determinant < 0.001                : 0

Scaling iteration 24
Moving mesh using displacement scaling : min:0.00100339  max:0.968755
Checking faces in error :
    non-orthogonality > 60  degrees                        : 6
    faces with face pyramid volume < 1e-14                 : 0
    faces with face-decomposition tet quality < 1e-15      : 0
    faces with concavity > 80  degrees                     : 0
    faces with area < 1e-08 m^2                            : 0
    faces with skewness > 2   (internal) or 4   (boundary) : 0
    faces with interpolation weights (0..1)  < 0.1         : 0
    faces with volume ratio of neighbour cells < 0.01      : 0
    faces with face twist < 0.02                           : 0
    faces on cells with determinant < 0.001                : 0

Scaling iteration 25
Displacement scaling for error reduction set to 0.
Moving mesh using displacement scaling : min:0.000752543  max:0.965513
Checking faces in error :
    non-orthogonality > 60  degrees                        : 6
    faces with face pyramid volume < 1e-14                 : 0
    faces with face-decomposition tet quality < 1e-15      : 0
    faces with concavity > 80  degrees                     : 0
    faces with area < 1e-08 m^2                            : 0
    faces with skewness > 2   (internal) or 4   (boundary) : 0
    faces with interpolation weights (0..1)  < 0.1         : 0
    faces with volume ratio of neighbour cells < 0.01      : 0
    faces with face twist < 0.02                           : 0
    faces on cells with determinant < 0.001                : 0

Scaling iteration 26
Moving mesh using displacement scaling : min:0  max:0.962159
Checking faces in error :
    non-orthogonality > 60  degrees                        : 0
    faces with face pyramid volume < 1e-14                 : 0
    faces with face-decomposition tet quality < 1e-15      : 0
    faces with concavity > 80  degrees                     : 0
    faces with area < 1e-08 m^2                            : 0
    faces with skewness > 2   (internal) or 4   (boundary) : 0
    faces with interpolation weights (0..1)  < 0.1         : 0
    faces with volume ratio of neighbour cells < 0.01      : 0
    faces with face twist < 0.02                           : 0
    faces on cells with determinant < 0.001                : 0
Successfully moved mesh

Patch points smoothed in = 205.63 s



Morph iteration 0
-----------------
Calculating patchDisplacement as distance to nearest surface point ...
    non-zone points : attract to nearest of all non-zone surfaces
    zone points     : attract to zone surface only

Wanted displacement : average:0.000112941 min:8.63244e-09 max:0.000383809
Calculated surface displacement in = 0.03 s


Detecting near surfaces ...
Overriding nearest with intersection of close gaps at 90 out of 9889 points.
Overriding displacement on features :
   implicit features    : false
   explicit features    : true
   multi-patch features : false

Detected 400 baffle edges out of 19497 edges.
Baffle points     : 451 of which attracted to :
    feature point : 0
    feature edge  : 451
    rest          : 0

Initially selected 1730 mesh points out of 9889 for reverse attraction.
Selected 4133 mesh points out of 9889 for reverse attraction.
Stringing feature edges : changed 180 points
Stringing feature edges : changed 16 points
Stringing feature edges : changed 5 points
Stringing feature edges : changed 3 points
Stringing feature edges : changed 1 points
Stringing feature edges : changed 1 points
Stringing feature edges : changed 0 points
Attraction:
    linear   : max:(-0.000318958 -3.20922e-05 -0.000211058) avg:(-8.04612e-07 1.95443e-07 -1.83438e-07)
    feature  : max:(9.26508e-05 0.000485088 -3.80276e-05) avg:(6.57828e-07 -2.77131e-07 4.73115e-08)
Feature analysis : total master points :9889 of which attracted to :
    feature point   : 15
    feature edge    : 1114
    nearest surface : 0
    rest            : 8760

--> FOAM Warning : Displacement (-1.83806e-06 5.29393e-07 -1.87401e-08) at mesh point 9403 coord (-0.0642801 -0.00126065 -0.0016628) points through the surrounding patch faces
Smoothing displacement ...
Iteration 0
Iteration 10
Iteration 20
Iteration 30
Iteration 40
Iteration 50
Iteration 60
Iteration 70
Iteration 80
Iteration 90
Iteration 100
Iteration 110
Iteration 120
Iteration 130
Iteration 140
Iteration 150
[...]
Detected 0 baffles across faceZones of type internal


Checking mesh with layer ...
Checking faces in error :
    non-orthogonality > 60  degrees                        : 100
    faces with face pyramid volume < 1e-14                 : 1
    faces with face-decomposition tet quality < 1e-15      : 151
    faces with concavity > 80  degrees                     : 0
    faces with area < 1e-08 m^2                            : 4076
    faces with skewness > 2   (internal) or 4   (boundary) : 0
    faces with interpolation weights (0..1)  < 0.1         : 460
    faces with volume ratio of neighbour cells < 0.01      : 0
    faces with face twist < 0.02                           : 21
    faces on cells with determinant < 0.001                : 0
Detected 4809 illegal faces (concave, zero area or negative cell pyramid volume)
Extruding 765 out of 6528 faces (11.7188%). Removed extrusion at 1580 faces.
Added 5059 out of 19584 cells (25.8323%).


Layer addition iteration 1
--------------------------

Determining displacement for added points according to pointNormal ...
Detected 0 points with point normal pointing through faces.
Reset displacement at 0 points to average of surrounding points.

displacementMedialAxis : Smoothing using Medial Axis ...
displacementMedialAxis : Reducing layer thickness at 0 nodes where thickness to medial axis distance is large 
displacementMedialAxis : Removing isolated regions ...
- if partially extruded faces make angle < 30
- if exclusively surrounded by non-extruded faces
displacementMedialAxis : Number of isolated points extrusion stopped : 98
fieldSmoother : Smoothing field ...
    Iteration 0   residual 1.52013e-06
displacementMedialAxis : Moving mesh ...
displacementMedialAxis : Iteration 0
Moving mesh using displacement scaling : min:1  max:1
Checking faces in error :
    non-orthogonality > 60  degrees                        : 0
    faces with face pyramid volume < 1e-14                 : 0
    faces with face-decomposition tet quality < 1e-15      : 0
    faces with concavity > 80  degrees                     : 0
    faces with area < 1e-08 m^2                            : 0
    faces with skewness > 2   (internal) or 4   (boundary) : 0
    faces with interpolation weights (0..1)  < 0.1         : 0
    faces with volume ratio of neighbour cells < 0.01      : 0
    faces with face twist < 0.02                           : 0
    faces on cells with determinant < 0.001                : 0
displacementMedialAxis : Successfully moved mesh
displacementMedialAxis : Finished moving mesh ...
truncateDisplacement : Unextruded 0 faces due to non-consecutive vertices being extruded.
truncateDisplacement : Unextruded 0 faces due to stringed edges with inconsistent extrusion.

Setting up information for layer truncation ...
Detected 0 baffles across faceZones of type internal


Checking mesh with layer ...
Checking faces in error :
    non-orthogonality > 60  degrees                        : 14
    faces with face pyramid volume < 1e-14                 : 0
    faces with face-decomposition tet quality < 1e-15      : 4
    faces with concavity > 80  degrees                     : 0
    faces with area < 1e-08 m^2                            : 180
    faces with skewness > 2   (internal) or 4   (boundary) : 0
    faces with interpolation weights (0..1)  < 0.1         : 64
    faces with volume ratio of neighbour cells < 0.01      : 0
    faces with face twist < 0.02                           : 1
    faces on cells with determinant < 0.001                : 0
Detected 263 illegal faces (concave, zero area or negative cell pyramid volume)
Extruding 308 out of 6528 faces (4.71814%). Removed extrusion at 125 faces.
Added 570 out of 19584 cells (2.91054%).


Layer addition iteration 2
--------------------------

Determining displacement for added points according to pointNormal ...
Detected 0 points with point normal pointing through faces.
Reset displacement at 0 points to average of surrounding points.

displacementMedialAxis : Smoothing using Medial Axis ...
displacementMedialAxis : Reducing layer thickness at 0 nodes where thickness to medial axis distance is large 
displacementMedialAxis : Removing isolated regions ...
- if partially extruded faces make angle < 30
- if exclusively surrounded by non-extruded faces
displacementMedialAxis : Number of isolated points extrusion stopped : 20
fieldSmoother : Smoothing field ...
    Iteration 0   residual 9.47829e-07
displacementMedialAxis : Moving mesh ...
displacementMedialAxis : Iteration 0
Moving mesh using displacement scaling : min:1  max:1
Checking faces in error :
    non-orthogonality > 60  degrees                        : 0
    faces with face pyramid volume < 1e-14                 : 0
    faces with face-decomposition tet quality < 1e-15      : 0
    faces with concavity > 80  degrees                     : 0
    faces with area < 1e-08 m^2                            : 0
    faces with skewness > 2   (internal) or 4   (boundary) : 0
    faces with interpolation weights (0..1)  < 0.1         : 0
    faces with volume ratio of neighbour cells < 0.01      : 0
    faces with face twist < 0.02                           : 0
    faces on cells with determinant < 0.001                : 0
displacementMedialAxis : Successfully moved mesh
displacementMedialAxis : Finished moving mesh ...
truncateDisplacement : Unextruded 0 faces due to non-consecutive vertices being extruded.
truncateDisplacement : Unextruded 0 faces due to stringed edges with inconsistent extrusion.

Setting up information for layer truncation ...
Detected 0 baffles across faceZones of type internal


Checking mesh with layer ...
Checking faces in error :
    non-orthogonality > 60  degrees                        : 11
    faces with face pyramid volume < 1e-14                 : 0
    faces with face-decomposition tet quality < 1e-15      : 0
    faces with concavity > 80  degrees                     : 0
    faces with area < 1e-08 m^2                            : 1
    faces with skewness > 2   (internal) or 4   (boundary) : 0
    faces with interpolation weights (0..1)  < 0.1         : 27
    faces with volume ratio of neighbour cells < 0.01      : 0
    faces with face twist < 0.02                           : 0
    faces on cells with determinant < 0.001                : 0
Detected 39 illegal faces (concave, zero area or negative cell pyramid volume)
Extruding 219 out of 6528 faces (3.35478%). Removed extrusion at 33 faces.
Added 267 out of 19584 cells (1.36336%).


Layer addition iteration 3
--------------------------

Determining displacement for added points according to pointNormal ...
Detected 0 points with point normal pointing through faces.
Reset displacement at 0 points to average of surrounding points.

displacementMedialAxis : Smoothing using Medial Axis ...
displacementMedialAxis : Reducing layer thickness at 0 nodes where thickness to medial axis distance is large 
displacementMedialAxis : Removing isolated regions ...
- if partially extruded faces make angle < 30
- if exclusively surrounded by non-extruded faces
displacementMedialAxis : Number of isolated points extrusion stopped : 12
fieldSmoother : Smoothing field ...
    Iteration 0   residual 7.57886e-07
displacementMedialAxis : Moving mesh ...
displacementMedialAxis : Iteration 0
Moving mesh using displacement scaling : min:1  max:1
Checking faces in error :
    non-orthogonality > 60  degrees                        : 1
    faces with face pyramid volume < 1e-14                 : 0
    faces with face-decomposition tet quality < 1e-15      : 0
    faces with concavity > 80  degrees                     : 0
    faces with area < 1e-08 m^2                            : 0
    faces with skewness > 2   (internal) or 4   (boundary) : 0
    faces with interpolation weights (0..1)  < 0.1         : 0
    faces with volume ratio of neighbour cells < 0.01      : 0
    faces with face twist < 0.02                           : 0
    faces on cells with determinant < 0.001                : 0
displacementMedialAxis : Iteration 1
Moving mesh using displacement scaling : min:0.75  max:1
Checking faces in error :
    non-orthogonality > 60  degrees                        : 0
    faces with face pyramid volume < 1e-14                 : 0
    faces with face-decomposition tet quality < 1e-15      : 0
    faces with concavity > 80  degrees                     : 0
    faces with area < 1e-08 m^2                            : 0
    faces with skewness > 2   (internal) or 4   (boundary) : 0
    faces with interpolation weights (0..1)  < 0.1         : 0
    faces with volume ratio of neighbour cells < 0.01      : 0
    faces with face twist < 0.02                           : 0
    faces on cells with determinant < 0.001                : 0
displacementMedialAxis : Successfully moved mesh
displacementMedialAxis : Finished moving mesh ...
truncateDisplacement : Unextruded 0 faces due to non-consecutive vertices being extruded.
truncateDisplacement : Unextruded 0 faces due to stringed edges with inconsistent extrusion.

Setting up information for layer truncation ...
Detected 0 baffles across faceZones of type internal


Checking mesh with layer ...
Checking faces in error :
    non-orthogonality > 60  degrees                        : 8
    faces with face pyramid volume < 1e-14                 : 0
    faces with face-decomposition tet quality < 1e-15      : 0
    faces with concavity > 80  degrees                     : 0
    faces with area < 1e-08 m^2                            : 0
    faces with skewness > 2   (internal) or 4   (boundary) : 0
    faces with interpolation weights (0..1)  < 0.1         : 30
    faces with volume ratio of neighbour cells < 0.01      : 0
    faces with face twist < 0.02                           : 0
    faces on cells with determinant < 0.001                : 0
Detected 38 illegal faces (concave, zero area or negative cell pyramid volume)
Extruding 153 out of 6528 faces (2.34375%). Removed extrusion at 32 faces.
Added 198 out of 19584 cells (1.01103%).


Layer addition iteration 4
--------------------------

Determining displacement for added points according to pointNormal ...
Detected 0 points with point normal pointing through faces.
Reset displacement at 0 points to average of surrounding points.

displacementMedialAxis : Smoothing using Medial Axis ...
displacementMedialAxis : Reducing layer thickness at 0 nodes where thickness to medial axis distance is large 
displacementMedialAxis : Removing isolated regions ...
- if partially extruded faces make angle < 30
- if exclusively surrounded by non-extruded faces
displacementMedialAxis : Number of isolated points extrusion stopped : 15
fieldSmoother : Smoothing field ...
    Iteration 0   residual 4.83158e-07
displacementMedialAxis : Moving mesh ...
displacementMedialAxis : Iteration 0
Moving mesh using displacement scaling : min:1  max:1
Checking faces in error :
    non-orthogonality > 60  degrees                        : 0
    faces with face pyramid volume < 1e-14                 : 0
    faces with face-decomposition tet quality < 1e-15      : 0
    faces with concavity > 80  degrees                     : 0
    faces with area < 1e-08 m^2                            : 0
    faces with skewness > 2   (internal) or 4   (boundary) : 0
    faces with interpolation weights (0..1)  < 0.1         : 0
    faces with volume ratio of neighbour cells < 0.01      : 0
    faces with face twist < 0.02                           : 0
    faces on cells with determinant < 0.001                : 0
displacementMedialAxis : Successfully moved mesh
displacementMedialAxis : Finished moving mesh ...
truncateDisplacement : Unextruded 0 faces due to non-consecutive vertices being extruded.
truncateDisplacement : Unextruded 0 faces due to stringed edges with inconsistent extrusion.

Setting up information for layer truncation ...
Detected 0 baffles across faceZones of type internal


Checking mesh with layer ...
Checking faces in error :
    non-orthogonality > 60  degrees                        : 7
    faces with face pyramid volume < 1e-14                 : 0
    faces with face-decomposition tet quality < 1e-15      : 0
    faces with concavity > 80  degrees                     : 0
    faces with area < 1e-08 m^2                            : 0
    faces with skewness > 2   (internal) or 4   (boundary) : 0
    faces with interpolation weights (0..1)  < 0.1         : 19
    faces with volume ratio of neighbour cells < 0.01      : 0
    faces with face twist < 0.02                           : 0
    faces on cells with determinant < 0.001                : 0
Detected 26 illegal faces (concave, zero area or negative cell pyramid volume)
Extruding 91 out of 6528 faces (1.394%). Removed extrusion at 26 faces.
Added 121 out of 19584 cells (0.617851%).


Layer addition iteration 5
--------------------------

Determining displacement for added points according to pointNormal ...
Detected 0 points with point normal pointing through faces.
Reset displacement at 0 points to average of surrounding points.

displacementMedialAxis : Smoothing using Medial Axis ...
displacementMedialAxis : Reducing layer thickness at 0 nodes where thickness to medial axis distance is large 
displacementMedialAxis : Removing isolated regions ...
- if partially extruded faces make angle < 30
- if exclusively surrounded by non-extruded faces
displacementMedialAxis : Number of isolated points extrusion stopped : 9
fieldSmoother : Smoothing field ...
    Iteration 0   residual 3.13305e-07
displacementMedialAxis : Moving mesh ...
displacementMedialAxis : Iteration 0
Moving mesh using displacement scaling : min:1  max:1
Checking faces in error :
    non-orthogonality > 60  degrees                        : 0
    faces with face pyramid volume < 1e-14                 : 0
    faces with face-decomposition tet quality < 1e-15      : 0
    faces with concavity > 80  degrees                     : 0
    faces with area < 1e-08 m^2                            : 0
    faces with skewness > 2   (internal) or 4   (boundary) : 0
    faces with interpolation weights (0..1)  < 0.1         : 0
    faces with volume ratio of neighbour cells < 0.01      : 0
    faces with face twist < 0.02                           : 0
    faces on cells with determinant < 0.001                : 0
displacementMedialAxis : Successfully moved mesh
displacementMedialAxis : Finished moving mesh ...
truncateDisplacement : Unextruded 0 faces due to non-consecutive vertices being extruded.
truncateDisplacement : Unextruded 0 faces due to stringed edges with inconsistent extrusion.

Setting up information for layer truncation ...
Detected 0 baffles across faceZones of type internal


Checking mesh with layer ...
Checking faces in error :
    non-orthogonality > 60  degrees                        : 11
    faces with face pyramid volume < 1e-14                 : 0
    faces with face-decomposition tet quality < 1e-15      : 0
    faces with concavity > 80  degrees                     : 0
    faces with area < 1e-08 m^2                            : 0
    faces with skewness > 2   (internal) or 4   (boundary) : 0
    faces with interpolation weights (0..1)  < 0.1         : 16
    faces with volume ratio of neighbour cells < 0.01      : 0
    faces with face twist < 0.02                           : 0
    faces on cells with determinant < 0.001                : 0
Detected 27 illegal faces (concave, zero area or negative cell pyramid volume)
Extruding 40 out of 6528 faces (0.612745%). Removed extrusion at 22 faces.
Added 73 out of 19584 cells (0.372753%).


Layer addition iteration 6
--------------------------

Determining displacement for added points according to pointNormal ...
Detected 0 points with point normal pointing through faces.
Reset displacement at 0 points to average of surrounding points.

displacementMedialAxis : Smoothing using Medial Axis ...
displacementMedialAxis : Reducing layer thickness at 0 nodes where thickness to medial axis distance is large 
displacementMedialAxis : Removing isolated regions ...
- if partially extruded faces make angle < 30
- if exclusively surrounded by non-extruded faces
displacementMedialAxis : Number of isolated points extrusion stopped : 17
fieldSmoother : Smoothing field ...
    Iteration 0   residual 0
displacementMedialAxis : Moving mesh ...
displacementMedialAxis : Iteration 0
Moving mesh using displacement scaling : min:1  max:1
Checking faces in error :
    non-orthogonality > 60  degrees                        : 0
    faces with face pyramid volume < 1e-14                 : 0
    faces with face-decomposition tet quality < 1e-15      : 0
    faces with concavity > 80  degrees                     : 0
    faces with area < 1e-08 m^2                            : 0
    faces with skewness > 2   (internal) or 4   (boundary) : 0
    faces with interpolation weights (0..1)  < 0.1         : 0
    faces with volume ratio of neighbour cells < 0.01      : 0
    faces with face twist < 0.02                           : 0
    faces on cells with determinant < 0.001                : 0
displacementMedialAxis : Successfully moved mesh
displacementMedialAxis : Finished moving mesh ...
truncateDisplacement : Unextruded 0 faces due to non-consecutive vertices being extruded.
truncateDisplacement : Unextruded 0 faces due to stringed edges with inconsistent extrusion.

Setting up information for layer truncation ...
Detected 0 baffles across faceZones of type internal


Checking mesh with layer ...
Checking faces in error :
    non-orthogonality > 60  degrees                        : 0
    faces with face pyramid volume < 1e-14                 : 0
    faces with face-decomposition tet quality < 1e-15      : 0
    faces with concavity > 80  degrees                     : 0
    faces with area < 1e-08 m^2                            : 0
    faces with skewness > 2   (internal) or 4   (boundary) : 0
    faces with interpolation weights (0..1)  < 0.1         : 0
    faces with volume ratio of neighbour cells < 0.01      : 0
    faces with face twist < 0.02                           : 0
    faces on cells with determinant < 0.001                : 0
Detected 0 illegal faces (concave, zero area or negative cell pyramid volume)
Extruding 0 out of 6528 faces (0%). Removed extrusion at 0 faces.
Added 0 out of 19584 cells (0%).
Edge intersection testing:
    Number of edges             : 151076
    Number of edges to retest   : 0
    Number of intersected edges : 6063

patch       faces    layers   overall thickness
                              [m]       [%]
-----       -----    ------   ---       ---
propellerCW 6528     0        0         0       

Writing 0 added cells to cellSet addedCells
Writing 0 faces inside added layer to faceSet layerFaces

Writing fields with layer information:
    nSurfaceLayers    : actual number of layers
    thickness         : overall layer thickness
    thicknessFraction : overall layer thickness (fraction of desired thickness)

Layer mesh : cells:46103  faces:151076  points:59962
Cells per refinement level:
    0	0
    1	15270
    2	4302
    3	10069
    4	16462
Writing mesh to time constant
Wrote mesh in = 40.14 s.
Layers added in = 40.14 s.
Checking final mesh ...
Checking faces in error :
    non-orthogonality > 60  degrees                        : 0
    faces with face pyramid volume < 1e-14                 : 0
    faces with face-decomposition tet quality < 1e-15      : 0
    faces with concavity > 80  degrees                     : 0
    faces with area < 1e-08 m^2                            : 0
    faces with skewness > 2   (internal) or 4   (boundary) : 0
    faces with interpolation weights (0..1)  < 0.1         : 0
    faces with volume ratio of neighbour cells < 0.01      : 0
    faces with face twist < 0.02                           : 0
    faces on cells with determinant < 0.001                : 0
Finished meshing without any errors
Finished meshing in = 1789.15 s.
End

