/*---------------------------------------------------------------------------*\
| =========                 |                                                 |
| \\      /  F ield         | OpenFOAM: The Open Source CFD Toolbox           |
|  \\    /   O peration     | Version:  v2106                                 |
|   \\  /    A nd           | Website:  www.openfoam.com                      |
|    \\/     M anipulation  |                                                 |
\*---------------------------------------------------------------------------*/
Build  : _c15bfde3cb-20210624 OPENFOAM=2106
Arch   : "LSB;label=32;scalar=64"
Exec   : snappyHexMesh -overwrite
Date   : Dec 31 2023
Time   : 14:27:39
Host   : gagan-Z97P-D3
PID    : 50181
I/O    : uncollated
Case   : /mnt/156ef307-e85d-45af-b0ab-57748c0af3f2/contra_props_60mm_template/PropellerMesh_CCW
nProcs : 1
trapFpe: Floating point exception trapping enabled (FOAM_SIGFPE).
fileModificationChecking : Monitoring run-time modified files using timeStampMaster (fileModificationSkew 5, maxFileModificationPolls 20)
allowSystemOperations : Allowing user-supplied system call operations

// * * * * * * * * * * * * * * * * * * * * * * * * * * * * * * * * * * * * * //
Create time

Create mesh for time = 0

Read mesh in = 0 s

Overall mesh bounding box  : (-0.02 -0.04 -0.02) (0.02 0.04 0.02)
Relative tolerance         : 1e-07
Absolute matching distance : 9.79796e-09

Reading refinement surfaces.
Read refinement surfaces in = 0.01 s

Reading refinement shells.
Refinement level according to distance to propellerCCW
    level 2 for all cells within 0.001 metre.
    level 1 for all cells within 0.08 metre.
Read refinement shells in = 0 s

Setting refinement level of surface to be consistent with shells.
For geometry propellerCCW detected 0 uncached triangles out of 7342
Checked shell refinement in = 0.03 s

Reading features.
Read edgeMesh PropCCW.eMesh
    points      : 1232
    edges       : 1234
    boundingBox : (-0.00500638 -0.0295972 -0.00352896) (-0.00148797 0.0295996 0.00244517)

Refinement level according to distance to "PropCCW.eMesh" (1232 points, 1234 edges).
    level 4 for all cells within 0 metre.
Read features in = 0 s


Determining initial surface intersections
-----------------------------------------

Edge intersection testing:
    Number of edges             : 6500
    Number of edges to retest   : 0
    Number of intersected edges : 0
Edge intersection testing:
    Number of edges             : 6500
    Number of edges to retest   : 6500
    Number of intersected edges : 19
Calculated surface intersections in = 0.01 s

Initial mesh : cells:2000  faces:6500  points:2541
Cells per refinement level:
    0	2000

Adding patches for surface regions
----------------------------------

Patch Type                Region                        
----- ----                ------                        
propellerCCW:

1     wall                propellerCCW                  

Added patches in = 0 s

Edge intersection testing:
    Number of edges             : 6500
    Number of edges to retest   : 0
    Number of intersected edges : 19
Decomposition method none [1]

Refinement phase
----------------

Found point (-0.01 0 0) in cell 892 on processor 0

Feature refinement iteration 0
------------------------------

Marked for refinement due to explicit features             : 38 cells.
Determined cells to refine in = 0.02 s
Selected for feature refinement : 38 cells (out of 2000)
Edge intersection testing:
    Number of edges             : 7502
    Number of edges to retest   : 1582
    Number of intersected edges : 91
Refined mesh in = 0 s
After refinement feature refinement iteration 0 : cells:2266  faces:7502  points:3031
Cells per refinement level:
    0	1962
    1	304

Feature refinement iteration 1
------------------------------

Marked for refinement due to explicit features             : 87 cells.
Determined cells to refine in = 0.03 s
Selected for feature refinement : 137 cells (out of 2266)
Edge intersection testing:
    Number of edges             : 10907
    Number of edges to retest   : 5088
    Number of intersected edges : 391
Refined mesh in = 0.01 s
After refinement feature refinement iteration 1 : cells:3225  faces:10907  points:4581
Cells per refinement level:
    0	1912
    1	617
    2	696

Feature refinement iteration 2
------------------------------

Marked for refinement due to explicit features             : 208 cells.
Determined cells to refine in = 0.03 s
Selected for feature refinement : 371 cells (out of 3225)
Edge intersection testing:
    Number of edges             : 20114
    Number of edges to retest   : 13774
    Number of intersected edges : 1087
Refined mesh in = 0.03 s
After refinement feature refinement iteration 2 : cells:5822  faces:20114  points:8721
Cells per refinement level:
    0	1875
    1	787
    2	1496
    3	1664

Feature refinement iteration 3
------------------------------

Marked for refinement due to explicit features             : 549 cells.
Determined cells to refine in = 0.07 s
Selected for feature refinement : 1012 cells (out of 5822)
Edge intersection testing:
    Number of edges             : 44882
    Number of edges to retest   : 37384
    Number of intersected edges : 3354
Refined mesh in = 0.07 s
After refinement feature refinement iteration 3 : cells:12906  faces:44882  points:19638
Cells per refinement level:
    0	1840
    1	955
    2	2076
    3	3643
    4	4392

Feature refinement iteration 4
------------------------------

Marked for refinement due to explicit features             : 0 cells.
Determined cells to refine in = 0.18 s
Selected for feature refinement : 0 cells (out of 12906)
Stopping refining since too few cells selected.


Surface refinement iteration 0
------------------------------

Marked for refinement due to surface intersection          : 211 cells.
Marked for refinement due to curvature/regions             : 175 cells.
Determined cells to refine in = 0.01 s
Selected for refinement : 402 cells (out of 12906)
Edge intersection testing:
    Number of edges             : 53558
    Number of edges to retest   : 19818
    Number of intersected edges : 4221
Refined mesh in = 0.07 s
After refinement surface refinement iteration 0 : cells:15720  faces:53558  points:22587
Cells per refinement level:
    0	1840
    1	931
    2	2065
    3	5092
    4	5792

Surface refinement iteration 1
------------------------------

Marked for refinement due to surface intersection          : 24 cells.
Marked for refinement due to curvature/regions             : 7 cells.
Determined cells to refine in = 0.02 s
Selected for refinement : 33 cells (out of 15720)
Edge intersection testing:
    Number of edges             : 54248
    Number of edges to retest   : 2508
    Number of intersected edges : 4247
Refined mesh in = 0.05 s
After refinement surface refinement iteration 1 : cells:15951  faces:54248  points:22804
Cells per refinement level:
    0	1840
    1	930
    2	2048
    3	5285
    4	5848

Surface refinement iteration 2
------------------------------

Marked for refinement due to surface intersection          : 0 cells.
Marked for refinement due to curvature/regions             : 0 cells.
Determined cells to refine in = 0.02 s
Selected for refinement : 0 cells (out of 15951)
Stopping refining since too few cells selected.


Removing mesh beyond surface intersections
------------------------------------------

Setting cellZones according to locationsInMesh:
Location : (-0.01 0 0)
    cellZone : none

For cellZone none found point (-0.01 0 0) in global region 0 out of 3 regions.
Keeping all cells containing inside points
Selected for keeping : 15951 cells.
Edge intersection testing:
    Number of edges             : 54248
    Number of edges to retest   : 0
    Number of intersected edges : 4247
Setting cellZones according to locationsInMesh:
Location : (-0.01 0 0)
    cellZone : none

For cellZone none found point (-0.01 0 0) in global region 0 out of 3 regions.
Keeping all cells containing inside points
Selected for keeping : 15510 cells.
Edge intersection testing:
    Number of edges             : 53396
    Number of edges to retest   : 1023
    Number of intersected edges : 4247

Shell refinement iteration 0
----------------------------

Marked for refinement due to distance to explicit features : 0 cells.
Marked for refinement due to refinement shells             : 1840 cells.
Determined cells to refine in = 0.16 s
Selected for internal refinement : 3482 cells (out of 15510)
Edge intersection testing:
    Number of edges             : 130760
    Number of edges to retest   : 122620
    Number of intersected edges : 4991
Refined mesh in = 0.2 s
After refinement shell refinement iteration 0 : cells:39884  faces:130760  points:51381
Cells per refinement level:
    0	0
    1	15462
    2	3051
    3	8334
    4	13037

Shell refinement iteration 1
----------------------------

Marked for refinement due to distance to explicit features : 0 cells.
Marked for refinement due to refinement shells             : 0 cells.
Determined cells to refine in = 0.03 s
Selected for internal refinement : 624 cells (out of 39884)
Edge intersection testing:
    Number of edges             : 144023
    Number of edges to retest   : 47501
    Number of intersected edges : 5258
Refined mesh in = 0.14 s
After refinement shell refinement iteration 1 : cells:44252  faces:144023  points:55903
Cells per refinement level:
    0	0
    1	15347
    2	3747
    3	9841
    4	15317

Shell refinement iteration 2
----------------------------

Marked for refinement due to distance to explicit features : 0 cells.
Marked for refinement due to refinement shells             : 0 cells.
Determined cells to refine in = 0.03 s
Selected for internal refinement : 86 cells (out of 44252)
Edge intersection testing:
    Number of edges             : 145922
    Number of edges to retest   : 7563
    Number of intersected edges : 5258
Refined mesh in = 0.12 s
After refinement shell refinement iteration 2 : cells:44854  faces:145922  points:56598
Cells per refinement level:
    0	0
    1	15287
    2	4201
    3	10049
    4	15317

Shell refinement iteration 3
----------------------------

Marked for refinement due to distance to explicit features : 0 cells.
Marked for refinement due to refinement shells             : 0 cells.
Determined cells to refine in = 0.02 s
Selected for internal refinement : 3 cells (out of 44854)
Stopping refining since too few cells selected.


Dangling coarse cells refinement iteration 0
--------------------------------------------

Determined cells to refine in = 0 s
Selected for refinement : 1 cells (out of 44854)
Edge intersection testing:
    Number of edges             : 145937
    Number of edges to retest   : 121
    Number of intersected edges : 5258
Refined mesh in = 0.12 s
After refinement coarse cell refinement iteration 0 : cells:44861  faces:145937  points:56600
Cells per refinement level:
    0	0
    1	15287
    2	4200
    3	10057
    4	15317

Dangling coarse cells refinement iteration 1
--------------------------------------------

Determined cells to refine in = 0 s
Selected for refinement : 0 cells (out of 44861)
Stopping refining since too few cells selected.


Dangling coarse cells refinement iteration 0
--------------------------------------------

Determined cells to refine in = 0 s
Selected for refinement : 0 cells (out of 44861)
Stopping refining since too few cells selected.


Refinement transition refinement iteration 0
--------------------------------------------

Determined cells to refine in = 0 s
Selected for refinement : 6 cells (out of 44861)
Edge intersection testing:
    Number of edges             : 146084
    Number of edges to retest   : 471
    Number of intersected edges : 5279
Refined mesh in = 0.13 s
After refinement interface cell refinement iteration 0 : cells:44903  faces:146084  points:56663
Cells per refinement level:
    0	0
    1	15287
    2	4200
    3	10051
    4	15365

Refinement transition refinement iteration 1
--------------------------------------------

Determined cells to refine in = 0 s
Selected for refinement : 0 cells (out of 44903)
Stopping refining since too few cells selected.


Splitting mesh at surface intersections
---------------------------------------

Introducing baffles for 5279 faces that are intersected by the surface.

Setting cellZones according to locationsInMesh:
Location : (-0.01 0 0)
    cellZone : none

For cellZone none found point (-0.01 0 0) in global region 0 out of 3 regions.
Edge intersection testing:
    Number of edges             : 151363
    Number of edges to retest   : 31134
    Number of intersected edges : 10385
Created baffles in = 0.17 s


After introducing baffles : cells:44903  faces:151363  points:56663
Cells per refinement level:
    0	0
    1	15287
    2	4200
    3	10051
    4	15365

Introducing baffles to block off problem cells
----------------------------------------------

markFacesOnProblemCells : marked 2505 additional internal faces to be converted into baffles.
Analyzed problem cells in = 0.11 s


Introducing baffles to delete problem cells.

Edge intersection testing:
    Number of edges             : 153868
    Number of edges to retest   : 8935
    Number of intersected edges : 10385
Created baffles in = 0.08 s


After introducing baffles : cells:44903  faces:153868  points:56663
Cells per refinement level:
    0	0
    1	15287
    2	4200
    3	10051
    4	15365
Setting cellZones according to locationsInMesh:
Location : (-0.01 0 0)
    cellZone : none

For cellZone none found point (-0.01 0 0) in global region 0 out of 1276 regions.
Edge intersection testing:
    Number of edges             : 153868
    Number of edges to retest   : 32872
    Number of intersected edges : 10385

Remove unreachable sections of mesh
-----------------------------------

Keeping all cells containing points 1((-0.01 0 0))
Selected for keeping : 43263 cells.
Edge intersection testing:
    Number of edges             : 144710
    Number of edges to retest   : 0
    Number of intersected edges : 7978
Split mesh in = 0.31 s


After subsetting : cells:43263  faces:144710  points:55302
Cells per refinement level:
    0	0
    1	15287
    2	4200
    3	10046
    4	13730

Introducing zones for interfaces
--------------------------------

Setting cellZones according to locationsInMesh:
Location : (-0.01 0 0)
    cellZone : none

For cellZone none found point (-0.01 0 0) in global region 0 out of 1 regions.
Setting faceZones according to neighbouring cellZones:

Edge intersection testing:
    Number of edges             : 144710
    Number of edges to retest   : 0
    Number of intersected edges : 7978

Handling cells with snap problems
---------------------------------

Introducing baffles for 7978 faces that are intersected by the surface.

Setting cellZones according to locationsInMesh:
Location : (-0.01 0 0)
    cellZone : none

For cellZone none found point (-0.01 0 0) in global region 0 out of 1 regions.
Edge intersection testing:
    Number of edges             : 144710
    Number of edges to retest   : 25183
    Number of intersected edges : 7978
Created baffles in = 0.3 s


After introducing baffles : cells:43263  faces:144710  points:55302
Cells per refinement level:
    0	0
    1	15287
    2	4200
    3	10046
    4	13730

Introducing baffles to block off problem cells
----------------------------------------------

markFacesOnProblemCells : marked 0 additional internal faces to be converted into baffles.
Analyzed problem cells in = 0.1 s


Introducing baffles to delete problem cells.

Created baffles in = 0.01 s


After introducing baffles : cells:43263  faces:144710  points:55302
Cells per refinement level:
    0	0
    1	15287
    2	4200
    3	10046
    4	13730
Setting cellZones according to locationsInMesh:
Location : (-0.01 0 0)
    cellZone : none

For cellZone none found point (-0.01 0 0) in global region 0 out of 1 regions.
Edge intersection testing:
    Number of edges             : 144710
    Number of edges to retest   : 25183
    Number of intersected edges : 7978

Remove unreachable sections of mesh
-----------------------------------

Split mesh in = 0.22 s


After subsetting : cells:43263  faces:144710  points:55302
Cells per refinement level:
    0	0
    1	15287
    2	4200
    3	10046
    4	13730

Merge free-standing baffles
---------------------------

freeStandingBaffles : detected 489 free-standing baffles out of 3362

freeStandingBaffles : detected 0 planar (within 20 degrees) free-standing baffles out of 489

Detected free-standing baffles : 0
Merged free-standing baffles in = 0.03 s


dupNonManifoldPoints : Found : 3273 non-manifold points (out of 55302)
Edge intersection testing:
    Number of edges             : 144710
    Number of edges to retest   : 0
    Number of intersected edges : 7978
Detected unsplittable baffles : 0

Merge refined boundary faces
----------------------------

Merging 125 sets of faces.

Edge intersection testing:
    Number of edges             : 144523
    Number of edges to retest   : 1051
    Number of intersected edges : 7791

Undo iteration 0
----------------
Checking faces in error :
    non-orthogonality > 60  degrees                        : 0
    faces with face pyramid volume < 1e-14                 : 0
    faces with face-decomposition tet quality < 1e-15      : 0
    faces with concavity > 80  degrees                     : 0
    faces with area < 1e-08 m^2                            : 0
    faces with skewness > 2   (internal) or 4   (boundary) : 0
    faces with interpolation weights (0..1)  < 0.1         : 0
    faces with volume ratio of neighbour cells < 0.01      : 0
    faces with face twist < 0.02                           : 0
    faces on cells with determinant < 0.001                : 0

Merging all points on surface that
- are used by only two boundary faces and
- make an angle with a cosine of more than 0.707107.

Removing 169 straight edge points ...

Edge intersection testing:
    Number of edges             : 144523
    Number of edges to retest   : 1296
    Number of intersected edges : 7791

Undo iteration 0
----------------
Checking faces in error :
    non-orthogonality > 60  degrees                        : 0
    faces with face pyramid volume < 1e-14                 : 0
    faces with face-decomposition tet quality < 1e-15      : 0
    faces with concavity > 80  degrees                     : 0
    faces with area < 1e-08 m^2                            : 0
    faces with skewness > 2   (internal) or 4   (boundary) : 0
    faces with interpolation weights (0..1)  < 0.1         : 0
    faces with volume ratio of neighbour cells < 0.01      : 0
    faces with face twist < 0.02                           : 0
    faces on cells with determinant < 0.001                : 0
Refined mesh : cells:43263  faces:144523  points:58375
Cells per refinement level:
    0	0
    1	15287
    2	4200
    3	10046
    4	13730
Writing mesh to time constant
Wrote mesh in = 0.83 s.
Mesh refined in = 3.72 s.

Morphing phase
--------------

Duplicating 0 points on faceZones of type boundary
Snapping to features in 20 iterations ...
Constructing mesh displacer ...
Using mesh parameters 
{
    maxNonOrtho     60;
    maxBoundarySkewness 4;
    maxInternalSkewness 2;
    maxConcave      80;
    minVol          1e-14;
    minTetQuality   1e-15;
    minArea         1e-08;
    minTwist        0.02;
    minDeterminant  0.001;
    minFaceWeight   0.1;
    minVolRatio     0.01;
    minTriangleTwist -1;
    nSmoothScale    50;
    errorReduction  0.75;
}


Checking initial mesh ...
Checking faces in error :
    non-orthogonality > 60  degrees                        : 0
    faces with face pyramid volume < 1e-14                 : 0
    faces with face-decomposition tet quality < 1e-15      : 0
    faces with concavity > 80  degrees                     : 0
    faces with area < 1e-08 m^2                            : 0
    faces with skewness > 2   (internal) or 4   (boundary) : 0
    faces with interpolation weights (0..1)  < 0.1         : 0
    faces with volume ratio of neighbour cells < 0.01      : 0
    faces with face twist < 0.02                           : 0
    faces on cells with determinant < 0.001                : 0
Detected 0 illegal faces (concave, zero area or negative cell pyramid volume)
Checked initial mesh in = 0.24 s


Smoothing patch points ...
Smoothing iteration 0
Found 6146 non-manifold point(s).

Scaling iteration 0
Moving mesh using displacement scaling : min:1  max:1
Checking faces in error :
    non-orthogonality > 60  degrees                        : 3
    faces with face pyramid volume < 1e-14                 : 0
    faces with face-decomposition tet quality < 1e-15      : 10
    faces with concavity > 80  degrees                     : 0
    faces with area < 1e-08 m^2                            : 0
    faces with skewness > 2   (internal) or 4   (boundary) : 0
    faces with interpolation weights (0..1)  < 0.1         : 0
    faces with volume ratio of neighbour cells < 0.01      : 0
    faces with face twist < 0.02                           : 1
    faces on cells with determinant < 0.001                : 0

Scaling iteration 1
Moving mesh using displacement scaling : min:0.75  max:1
Checking faces in error :
    non-orthogonality > 60  degrees                        : 0
    faces with face pyramid volume < 1e-14                 : 0
    faces with face-decomposition tet quality < 1e-15      : 0
    faces with concavity > 80  degrees                     : 0
    faces with area < 1e-08 m^2                            : 0
    faces with skewness > 2   (internal) or 4   (boundary) : 0
    faces with interpolation weights (0..1)  < 0.1         : 0
    faces with volume ratio of neighbour cells < 0.01      : 0
    faces with face twist < 0.02                           : 0
    faces on cells with determinant < 0.001                : 0
Successfully moved mesh

Smoothing iteration 1
Found 0 non-manifold point(s).

Scaling iteration 0
Moving mesh using displacement scaling : min:1  max:1
Checking faces in error :
    non-orthogonality > 60  degrees                        : 0
    faces with face pyramid volume < 1e-14                 : 0
    faces with face-decomposition tet quality < 1e-15      : 0
    faces with concavity > 80  degrees                     : 0
    faces with area < 1e-08 m^2                            : 0
    faces with skewness > 2   (internal) or 4   (boundary) : 0
    faces with interpolation weights (0..1)  < 0.1         : 0
    faces with volume ratio of neighbour cells < 0.01      : 0
    faces with face twist < 0.02                           : 0
    faces on cells with determinant < 0.001                : 0
Successfully moved mesh

Smoothing iteration 2
Found 0 non-manifold point(s).

Scaling iteration 0
Moving mesh using displacement scaling : min:1  max:1
Checking faces in error :
    non-orthogonality > 60  degrees                        : 9
    faces with face pyramid volume < 1e-14                 : 0
    faces with face-decomposition tet quality < 1e-15      : 0
    faces with concavity > 80  degrees                     : 0
    faces with area < 1e-08 m^2                            : 0
    faces with skewness > 2   (internal) or 4   (boundary) : 0
    faces with interpolation weights (0..1)  < 0.1         : 0
    faces with volume ratio of neighbour cells < 0.01      : 0
    faces with face twist < 0.02                           : 0
    faces on cells with determinant < 0.001                : 0

Scaling iteration 1
Moving mesh using displacement scaling : min:0.75  max:1
Checking faces in error :
    non-orthogonality > 60  degrees                        : 6
    faces with face pyramid volume < 1e-14                 : 0
    faces with face-decomposition tet quality < 1e-15      : 0
    faces with concavity > 80  degrees                     : 0
    faces with area < 1e-08 m^2                            : 0
    faces with skewness > 2   (internal) or 4   (boundary) : 0
    faces with interpolation weights (0..1)  < 0.1         : 0
    faces with volume ratio of neighbour cells < 0.01      : 0
    faces with face twist < 0.02                           : 0
    faces on cells with determinant < 0.001                : 0

Scaling iteration 2
Moving mesh using displacement scaling : min:0.5625  max:1
Checking faces in error :
    non-orthogonality > 60  degrees                        : 2
    faces with face pyramid volume < 1e-14                 : 0
    faces with face-decomposition tet quality < 1e-15      : 0
    faces with concavity > 80  degrees                     : 0
    faces with area < 1e-08 m^2                            : 0
    faces with skewness > 2   (internal) or 4   (boundary) : 0
    faces with interpolation weights (0..1)  < 0.1         : 0
    faces with volume ratio of neighbour cells < 0.01      : 0
    faces with face twist < 0.02                           : 0
    faces on cells with determinant < 0.001                : 0

Scaling iteration 3
Moving mesh using displacement scaling : min:0.421875  max:1
Checking faces in error :
    non-orthogonality > 60  degrees                        : 1
    faces with face pyramid volume < 1e-14                 : 0
    faces with face-decomposition tet quality < 1e-15      : 0
    faces with concavity > 80  degrees                     : 0
    faces with area < 1e-08 m^2                            : 0
    faces with skewness > 2   (internal) or 4   (boundary) : 0
    faces with interpolation weights (0..1)  < 0.1         : 0
    faces with volume ratio of neighbour cells < 0.01      : 0
    faces with face twist < 0.02                           : 0
    faces on cells with determinant < 0.001                : 0

Scaling iteration 4
Moving mesh using displacement scaling : min:0.316406  max:1
Checking faces in error :
    non-orthogonality > 60  degrees                        : 0
    faces with face pyramid volume < 1e-14                 : 0
    faces with face-decomposition tet quality < 1e-15      : 0
    faces with concavity > 80  degrees                     : 0
    faces with area < 1e-08 m^2                            : 0
    faces with skewness > 2   (internal) or 4   (boundary) : 0
    faces with interpolation weights (0..1)  < 0.1         : 0
    faces with volume ratio of neighbour cells < 0.01      : 0
    faces with face twist < 0.02                           : 0
    faces on cells with determinant < 0.001                : 0
Successfully moved mesh

Smoothing iteration 3
Found 0 non-manifold point(s).

Scaling iteration 0
Moving mesh using displacement scaling : min:1  max:1
Checking faces in error :
    non-orthogonality > 60  degrees                        : 19
    faces with face pyramid volume < 1e-14                 : 0
    faces with face-decomposition tet quality < 1e-15      : 0
    faces with concavity > 80  degrees                     : 0
    faces with area < 1e-08 m^2                            : 4
    faces with skewness > 2   (internal) or 4   (boundary) : 0
    faces with interpolation weights (0..1)  < 0.1         : 4
    faces with volume ratio of neighbour cells < 0.01      : 0
    faces with face twist < 0.02                           : 0
    faces on cells with determinant < 0.001                : 0

Scaling iteration 1
Moving mesh using displacement scaling : min:0.75  max:1
Checking faces in error :
    non-orthogonality > 60  degrees                        : 13
    faces with face pyramid volume < 1e-14                 : 0
    faces with face-decomposition tet quality < 1e-15      : 0
    faces with concavity > 80  degrees                     : 0
    faces with area < 1e-08 m^2                            : 4
    faces with skewness > 2   (internal) or 4   (boundary) : 0
    faces with interpolation weights (0..1)  < 0.1         : 4
    faces with volume ratio of neighbour cells < 0.01      : 0
    faces with face twist < 0.02                           : 0
    faces on cells with determinant < 0.001                : 0

Scaling iteration 2
Moving mesh using displacement scaling : min:0.5625  max:1
Checking faces in error :
    non-orthogonality > 60  degrees                        : 12
    faces with face pyramid volume < 1e-14                 : 0
    faces with face-decomposition tet quality < 1e-15      : 0
    faces with concavity > 80  degrees                     : 0
    faces with area < 1e-08 m^2                            : 4
    faces with skewness > 2   (internal) or 4   (boundary) : 0
    faces with interpolation weights (0..1)  < 0.1         : 0
    faces with volume ratio of neighbour cells < 0.01      : 0
    faces with face twist < 0.02                           : 0
    faces on cells with determinant < 0.001                : 0

Scaling iteration 3
Moving mesh using displacement scaling : min:0.421875  max:1
Checking faces in error :
    non-orthogonality > 60  degrees                        : 11
    faces with face pyramid volume < 1e-14                 : 0
    faces with face-decomposition tet quality < 1e-15      : 0
    faces with concavity > 80  degrees                     : 0
    faces with area < 1e-08 m^2                            : 0
    faces with skewness > 2   (internal) or 4   (boundary) : 0
    faces with interpolation weights (0..1)  < 0.1         : 0
    faces with volume ratio of neighbour cells < 0.01      : 0
    faces with face twist < 0.02                           : 0
    faces on cells with determinant < 0.001                : 0

Scaling iteration 4
Moving mesh using displacement scaling : min:0.316406  max:0.999999
Checking faces in error :
    non-orthogonality > 60  degrees                        : 11
    faces with face pyramid volume < 1e-14                 : 0
    faces with face-decomposition tet quality < 1e-15      : 0
    faces with concavity > 80  degrees                     : 0
    faces with area < 1e-08 m^2                            : 0
    faces with skewness > 2   (internal) or 4   (boundary) : 0
    faces with interpolation weights (0..1)  < 0.1         : 0
    faces with volume ratio of neighbour cells < 0.01      : 0
    faces with face twist < 0.02                           : 0
    faces on cells with determinant < 0.001                : 0

Scaling iteration 5
Moving mesh using displacement scaling : min:0.237305  max:0.999993
Checking faces in error :
    non-orthogonality > 60  degrees                        : 11
    faces with face pyramid volume < 1e-14                 : 0
    faces with face-decomposition tet quality < 1e-15      : 0
    faces with concavity > 80  degrees                     : 0
    faces with area < 1e-08 m^2                            : 0
    faces with skewness > 2   (internal) or 4   (boundary) : 0
    faces with interpolation weights (0..1)  < 0.1         : 0
    faces with volume ratio of neighbour cells < 0.01      : 0
    faces with face twist < 0.02                           : 0
    faces on cells with determinant < 0.001                : 0

Scaling iteration 6
Moving mesh using displacement scaling : min:0.177979  max:0.99997
Checking faces in error :
    non-orthogonality > 60  degrees                        : 9
    faces with face pyramid volume < 1e-14                 : 0
    faces with face-decomposition tet quality < 1e-15      : 0
    faces with concavity > 80  degrees                     : 0
    faces with area < 1e-08 m^2                            : 0
    faces with skewness > 2   (internal) or 4   (boundary) : 0
    faces with interpolation weights (0..1)  < 0.1         : 0
    faces with volume ratio of neighbour cells < 0.01      : 0
    faces with face twist < 0.02                           : 0
    faces on cells with determinant < 0.001                : 0

Scaling iteration 7
Moving mesh using displacement scaling : min:0.133484  max:0.999913
Checking faces in error :
    non-orthogonality > 60  degrees                        : 7
    faces with face pyramid volume < 1e-14                 : 0
    faces with face-decomposition tet quality < 1e-15      : 0
    faces with concavity > 80  degrees                     : 0
    faces with area < 1e-08 m^2                            : 0
    faces with skewness > 2   (internal) or 4   (boundary) : 0
    faces with interpolation weights (0..1)  < 0.1         : 0
    faces with volume ratio of neighbour cells < 0.01      : 0
    faces with face twist < 0.02                           : 0
    faces on cells with determinant < 0.001                : 0

Scaling iteration 8
Moving mesh using displacement scaling : min:0.100113  max:0.999801
Checking faces in error :
    non-orthogonality > 60  degrees                        : 4
    faces with face pyramid volume < 1e-14                 : 0
    faces with face-decomposition tet quality < 1e-15      : 0
    faces with concavity > 80  degrees                     : 0
    faces with area < 1e-08 m^2                            : 0
    faces with skewness > 2   (internal) or 4   (boundary) : 0
    faces with interpolation weights (0..1)  < 0.1         : 0
    faces with volume ratio of neighbour cells < 0.01      : 0
    faces with face twist < 0.02                           : 0
    faces on cells with determinant < 0.001                : 0

Scaling iteration 9
Moving mesh using displacement scaling : min:0.0750847  max:0.99961
Checking faces in error :
    non-orthogonality > 60  degrees                        : 3
    faces with face pyramid volume < 1e-14                 : 0
    faces with face-decomposition tet quality < 1e-15      : 0
    faces with concavity > 80  degrees                     : 0
    faces with area < 1e-08 m^2                            : 0
    faces with skewness > 2   (internal) or 4   (boundary) : 0
    faces with interpolation weights (0..1)  < 0.1         : 0
    faces with volume ratio of neighbour cells < 0.01      : 0
    faces with face twist < 0.02                           : 0
    faces on cells with determinant < 0.001                : 0

Scaling iteration 10
Moving mesh using displacement scaling : min:0.0563135  max:0.999316
Checking faces in error :
    non-orthogonality > 60  degrees                        : 3
    faces with face pyramid volume < 1e-14                 : 0
    faces with face-decomposition tet quality < 1e-15      : 0
    faces with concavity > 80  degrees                     : 0
    faces with area < 1e-08 m^2                            : 0
    faces with skewness > 2   (internal) or 4   (boundary) : 0
    faces with interpolation weights (0..1)  < 0.1         : 0
    faces with volume ratio of neighbour cells < 0.01      : 0
    faces with face twist < 0.02                           : 0
    faces on cells with determinant < 0.001                : 0

Scaling iteration 11
Moving mesh using displacement scaling : min:0.0422351  max:0.998898
Checking faces in error :
    non-orthogonality > 60  degrees                        : 3
    faces with face pyramid volume < 1e-14                 : 0
    faces with face-decomposition tet quality < 1e-15      : 0
    faces with concavity > 80  degrees                     : 0
    faces with area < 1e-08 m^2                            : 0
    faces with skewness > 2   (internal) or 4   (boundary) : 0
    faces with interpolation weights (0..1)  < 0.1         : 0
    faces with volume ratio of neighbour cells < 0.01      : 0
    faces with face twist < 0.02                           : 0
    faces on cells with determinant < 0.001                : 0

Scaling iteration 12
Moving mesh using displacement scaling : min:0.0316764  max:0.998336
Checking faces in error :
    non-orthogonality > 60  degrees                        : 3
    faces with face pyramid volume < 1e-14                 : 0
    faces with face-decomposition tet quality < 1e-15      : 0
    faces with concavity > 80  degrees                     : 0
    faces with area < 1e-08 m^2                            : 0
    faces with skewness > 2   (internal) or 4   (boundary) : 0
    faces with interpolation weights (0..1)  < 0.1         : 0
    faces with volume ratio of neighbour cells < 0.01      : 0
    faces with face twist < 0.02                           : 0
    faces on cells with determinant < 0.001                : 0

Scaling iteration 13
Moving mesh using displacement scaling : min:0.0237573  max:0.997617
Checking faces in error :
    non-orthogonality > 60  degrees                        : 3
    faces with face pyramid volume < 1e-14                 : 0
    faces with face-decomposition tet quality < 1e-15      : 0
    faces with concavity > 80  degrees                     : 0
    faces with area < 1e-08 m^2                            : 0
    faces with skewness > 2   (internal) or 4   (boundary) : 0
    faces with interpolation weights (0..1)  < 0.1         : 0
    faces with volume ratio of neighbour cells < 0.01      : 0
    faces with face twist < 0.02                           : 0
    faces on cells with determinant < 0.001                : 0

Scaling iteration 14
Moving mesh using displacement scaling : min:0.0178179  max:0.996727
Checking faces in error :
    non-orthogonality > 60  degrees                        : 3
    faces with face pyramid volume < 1e-14                 : 0
    faces with face-decomposition tet quality < 1e-15      : 0
    faces with concavity > 80  degrees                     : 0
    faces with area < 1e-08 m^2                            : 0
    faces with skewness > 2   (internal) or 4   (boundary) : 0
    faces with interpolation weights (0..1)  < 0.1         : 0
    faces with volume ratio of neighbour cells < 0.01      : 0
    faces with face twist < 0.02                           : 0
    faces on cells with determinant < 0.001                : 0

Scaling iteration 15
Moving mesh using displacement scaling : min:0.0133635  max:0.995659
Checking faces in error :
    non-orthogonality > 60  degrees                        : 3
    faces with face pyramid volume < 1e-14                 : 0
    faces with face-decomposition tet quality < 1e-15      : 0
    faces with concavity > 80  degrees                     : 0
    faces with area < 1e-08 m^2                            : 0
    faces with skewness > 2   (internal) or 4   (boundary) : 0
    faces with interpolation weights (0..1)  < 0.1         : 0
    faces with volume ratio of neighbour cells < 0.01      : 0
    faces with face twist < 0.02                           : 0
    faces on cells with determinant < 0.001                : 0

Scaling iteration 16
Moving mesh using displacement scaling : min:0.0100226  max:0.994409
Checking faces in error :
    non-orthogonality > 60  degrees                        : 3
    faces with face pyramid volume < 1e-14                 : 0
    faces with face-decomposition tet quality < 1e-15      : 0
    faces with concavity > 80  degrees                     : 0
    faces with area < 1e-08 m^2                            : 0
    faces with skewness > 2   (internal) or 4   (boundary) : 0
    faces with interpolation weights (0..1)  < 0.1         : 0
    faces with volume ratio of neighbour cells < 0.01      : 0
    faces with face twist < 0.02                           : 0
    faces on cells with determinant < 0.001                : 0

Scaling iteration 17
Moving mesh using displacement scaling : min:0.00751695  max:0.992972
Checking faces in error :
    non-orthogonality > 60  degrees                        : 3
    faces with face pyramid volume < 1e-14                 : 0
    faces with face-decomposition tet quality < 1e-15      : 0
    faces with concavity > 80  degrees                     : 0
    faces with area < 1e-08 m^2                            : 0
    faces with skewness > 2   (internal) or 4   (boundary) : 0
    faces with interpolation weights (0..1)  < 0.1         : 0
    faces with volume ratio of neighbour cells < 0.01      : 0
    faces with face twist < 0.02                           : 0
    faces on cells with determinant < 0.001                : 0

Scaling iteration 18
Moving mesh using displacement scaling : min:0.00563771  max:0.99135
Checking faces in error :
    non-orthogonality > 60  degrees                        : 3
    faces with face pyramid volume < 1e-14                 : 0
    faces with face-decomposition tet quality < 1e-15      : 0
    faces with concavity > 80  degrees                     : 0
    faces with area < 1e-08 m^2                            : 0
    faces with skewness > 2   (internal) or 4   (boundary) : 0
    faces with interpolation weights (0..1)  < 0.1         : 0
    faces with volume ratio of neighbour cells < 0.01      : 0
    faces with face twist < 0.02                           : 0
    faces on cells with determinant < 0.001                : 0

Scaling iteration 19
Moving mesh using displacement scaling : min:0.00422828  max:0.989543
Checking faces in error :
    non-orthogonality > 60  degrees                        : 3
    faces with face pyramid volume < 1e-14                 : 0
    faces with face-decomposition tet quality < 1e-15      : 0
    faces with concavity > 80  degrees                     : 0
    faces with area < 1e-08 m^2                            : 0
    faces with skewness > 2   (internal) or 4   (boundary) : 0
    faces with interpolation weights (0..1)  < 0.1         : 0
    faces with volume ratio of neighbour cells < 0.01      : 0
    faces with face twist < 0.02                           : 0
    faces on cells with determinant < 0.001                : 0

Scaling iteration 20
Moving mesh using displacement scaling : min:0.00317121  max:0.987554
Checking faces in error :
    non-orthogonality > 60  degrees                        : 3
    faces with face pyramid volume < 1e-14                 : 0
    faces with face-decomposition tet quality < 1e-15      : 0
    faces with concavity > 80  degrees                     : 0
    faces with area < 1e-08 m^2                            : 0
    faces with skewness > 2   (internal) or 4   (boundary) : 0
    faces with interpolation weights (0..1)  < 0.1         : 0
    faces with volume ratio of neighbour cells < 0.01      : 0
    faces with face twist < 0.02                           : 0
    faces on cells with determinant < 0.001                : 0

Scaling iteration 21
Moving mesh using displacement scaling : min:0.00237841  max:0.985386
Checking faces in error :
    non-orthogonality > 60  degrees                        : 3
    faces with face pyramid volume < 1e-14                 : 0
    faces with face-decomposition tet quality < 1e-15      : 0
    faces with concavity > 80  degrees                     : 0
    faces with area < 1e-08 m^2                            : 0
    faces with skewness > 2   (internal) or 4   (boundary) : 0
    faces with interpolation weights (0..1)  < 0.1         : 0
    faces with volume ratio of neighbour cells < 0.01      : 0
    faces with face twist < 0.02                           : 0
    faces on cells with determinant < 0.001                : 0

Scaling iteration 22
Moving mesh using displacement scaling : min:0.00178381  max:0.983044
Checking faces in error :
    non-orthogonality > 60  degrees                        : 3
    faces with face pyramid volume < 1e-14                 : 0
    faces with face-decomposition tet quality < 1e-15      : 0
    faces with concavity > 80  degrees                     : 0
    faces with area < 1e-08 m^2                            : 0
    faces with skewness > 2   (internal) or 4   (boundary) : 0
    faces with interpolation weights (0..1)  < 0.1         : 0
    faces with volume ratio of neighbour cells < 0.01      : 0
    faces with face twist < 0.02                           : 0
    faces on cells with determinant < 0.001                : 0

Scaling iteration 23
Moving mesh using displacement scaling : min:0.00133786  max:0.980533
Checking faces in error :
    non-orthogonality > 60  degrees                        : 3
    faces with face pyramid volume < 1e-14                 : 0
    faces with face-decomposition tet quality < 1e-15      : 0
    faces with concavity > 80  degrees                     : 0
    faces with area < 1e-08 m^2                            : 0
    faces with skewness > 2   (internal) or 4   (boundary) : 0
    faces with interpolation weights (0..1)  < 0.1         : 0
    faces with volume ratio of neighbour cells < 0.01      : 0
    faces with face twist < 0.02                           : 0
    faces on cells with determinant < 0.001                : 0

Scaling iteration 24
Moving mesh using displacement scaling : min:0.00100339  max:0.977857
Checking faces in error :
    non-orthogonality > 60  degrees                        : 3
    faces with face pyramid volume < 1e-14                 : 0
    faces with face-decomposition tet quality < 1e-15      : 0
    faces with concavity > 80  degrees                     : 0
    faces with area < 1e-08 m^2                            : 0
    faces with skewness > 2   (internal) or 4   (boundary) : 0
    faces with interpolation weights (0..1)  < 0.1         : 0
    faces with volume ratio of neighbour cells < 0.01      : 0
    faces with face twist < 0.02                           : 0
    faces on cells with determinant < 0.001                : 0

Scaling iteration 25
Displacement scaling for error reduction set to 0.
Moving mesh using displacement scaling : min:0.000752543  max:0.975024
Checking faces in error :
    non-orthogonality > 60  degrees                        : 3
    faces with face pyramid volume < 1e-14                 : 0
    faces with face-decomposition tet quality < 1e-15      : 0
    faces with concavity > 80  degrees                     : 0
    faces with area < 1e-08 m^2                            : 0
    faces with skewness > 2   (internal) or 4   (boundary) : 0
    faces with interpolation weights (0..1)  < 0.1         : 0
    faces with volume ratio of neighbour cells < 0.01      : 0
    faces with face twist < 0.02                           : 0
    faces on cells with determinant < 0.001                : 0

Scaling iteration 26
Moving mesh using displacement scaling : min:0  max:0.972039
Checking faces in error :
    non-orthogonality > 60  degrees                        : 0
    faces with face pyramid volume < 1e-14                 : 0
    faces with face-decomposition tet quality < 1e-15      : 0
    faces with concavity > 80  degrees                     : 0
    faces with area < 1e-08 m^2                            : 0
    faces with skewness > 2   (internal) or 4   (boundary) : 0
    faces with interpolation weights (0..1)  < 0.1         : 0
    faces with volume ratio of neighbour cells < 0.01      : 0
    faces with face twist < 0.02                           : 0
    faces on cells with determinant < 0.001                : 0
Successfully moved mesh

Smoothing iteration 4
Found 0 non-manifold point(s).

Scaling iteration 0
Moving mesh using displacement scaling : min:1  max:1
Checking faces in error :
    non-orthogonality > 60  degrees                        : 58
    faces with face pyramid volume < 1e-14                 : 0
    faces with face-decomposition tet quality < 1e-15      : 1
    faces with concavity > 80  degrees                     : 0
    faces with area < 1e-08 m^2                            : 4
    faces with skewness > 2   (internal) or 4   (boundary) : 0
    faces with interpolation weights (0..1)  < 0.1         : 6
    faces with volume ratio of neighbour cells < 0.01      : 0
    faces with face twist < 0.02                           : 0
    faces on cells with determinant < 0.001                : 0

Scaling iteration 1
Moving mesh using displacement scaling : min:0.75  max:1
Checking faces in error :
    non-orthogonality > 60  degrees                        : 31
    faces with face pyramid volume < 1e-14                 : 0
    faces with face-decomposition tet quality < 1e-15      : 0
    faces with concavity > 80  degrees                     : 0
    faces with area < 1e-08 m^2                            : 5
    faces with skewness > 2   (internal) or 4   (boundary) : 0
    faces with interpolation weights (0..1)  < 0.1         : 6
    faces with volume ratio of neighbour cells < 0.01      : 0
    faces with face twist < 0.02                           : 0
    faces on cells with determinant < 0.001                : 0

Scaling iteration 2
Moving mesh using displacement scaling : min:0.5625  max:1
Checking faces in error :
    non-orthogonality > 60  degrees                        : 20
    faces with face pyramid volume < 1e-14                 : 0
    faces with face-decomposition tet quality < 1e-15      : 0
    faces with concavity > 80  degrees                     : 0
    faces with area < 1e-08 m^2                            : 4
    faces with skewness > 2   (internal) or 4   (boundary) : 0
    faces with interpolation weights (0..1)  < 0.1         : 5
    faces with volume ratio of neighbour cells < 0.01      : 0
    faces with face twist < 0.02                           : 0
    faces on cells with determinant < 0.001                : 0

Scaling iteration 3
Moving mesh using displacement scaling : min:0.421875  max:1
Checking faces in error :
    non-orthogonality > 60  degrees                        : 14
    faces with face pyramid volume < 1e-14                 : 0
    faces with face-decomposition tet quality < 1e-15      : 0
    faces with concavity > 80  degrees                     : 0
    faces with area < 1e-08 m^2                            : 4
    faces with skewness > 2   (internal) or 4   (boundary) : 0
    faces with interpolation weights (0..1)  < 0.1         : 4
    faces with volume ratio of neighbour cells < 0.01      : 0
    faces with face twist < 0.02                           : 0
    faces on cells with determinant < 0.001                : 0

Scaling iteration 4
Moving mesh using displacement scaling : min:0.316406  max:0.999998
Checking faces in error :
    non-orthogonality > 60  degrees                        : 13
    faces with face pyramid volume < 1e-14                 : 0
    faces with face-decomposition tet quality < 1e-15      : 0
    faces with concavity > 80  degrees                     : 0
    faces with area < 1e-08 m^2                            : 4
    faces with skewness > 2   (internal) or 4   (boundary) : 0
    faces with interpolation weights (0..1)  < 0.1         : 4
    faces with volume ratio of neighbour cells < 0.01      : 0
    faces with face twist < 0.02                           : 0
    faces on cells with determinant < 0.001                : 0

Scaling iteration 5
Moving mesh using displacement scaling : min:0.237305  max:0.999983
Checking faces in error :
    non-orthogonality > 60  degrees                        : 13
    faces with face pyramid volume < 1e-14                 : 0
    faces with face-decomposition tet quality < 1e-15      : 0
    faces with concavity > 80  degrees                     : 0
    faces with area < 1e-08 m^2                            : 4
    faces with skewness > 2   (internal) or 4   (boundary) : 0
    faces with interpolation weights (0..1)  < 0.1         : 4
    faces with volume ratio of neighbour cells < 0.01      : 0
    faces with face twist < 0.02                           : 0
    faces on cells with determinant < 0.001                : 0

Scaling iteration 6
Moving mesh using displacement scaling : min:0.177979  max:0.999935
Checking faces in error :
    non-orthogonality > 60  degrees                        : 13
    faces with face pyramid volume < 1e-14                 : 0
    faces with face-decomposition tet quality < 1e-15      : 0
    faces with concavity > 80  degrees                     : 0
    faces with area < 1e-08 m^2                            : 4
    faces with skewness > 2   (internal) or 4   (boundary) : 0
    faces with interpolation weights (0..1)  < 0.1         : 4
    faces with volume ratio of neighbour cells < 0.01      : 0
    faces with face twist < 0.02                           : 0
    faces on cells with determinant < 0.001                : 0

Scaling iteration 7
Moving mesh using displacement scaling : min:0.133484  max:0.999819
Checking faces in error :
    non-orthogonality > 60  degrees                        : 13
    faces with face pyramid volume < 1e-14                 : 0
    faces with face-decomposition tet quality < 1e-15      : 0
    faces with concavity > 80  degrees                     : 0
    faces with area < 1e-08 m^2                            : 4
    faces with skewness > 2   (internal) or 4   (boundary) : 0
    faces with interpolation weights (0..1)  < 0.1         : 3
    faces with volume ratio of neighbour cells < 0.01      : 0
    faces with face twist < 0.02                           : 0
    faces on cells with determinant < 0.001                : 0

Scaling iteration 8
Moving mesh using displacement scaling : min:0.100113  max:0.999599
Checking faces in error :
    non-orthogonality > 60  degrees                        : 13
    faces with face pyramid volume < 1e-14                 : 0
    faces with face-decomposition tet quality < 1e-15      : 0
    faces with concavity > 80  degrees                     : 0
    faces with area < 1e-08 m^2                            : 0
    faces with skewness > 2   (internal) or 4   (boundary) : 0
    faces with interpolation weights (0..1)  < 0.1         : 3
    faces with volume ratio of neighbour cells < 0.01      : 0
    faces with face twist < 0.02                           : 0
    faces on cells with determinant < 0.001                : 0

Scaling iteration 9
Moving mesh using displacement scaling : min:0.0750847  max:0.999238
Checking faces in error :
    non-orthogonality > 60  degrees                        : 13
    faces with face pyramid volume < 1e-14                 : 0
    faces with face-decomposition tet quality < 1e-15      : 0
    faces with concavity > 80  degrees                     : 0
    faces with area < 1e-08 m^2                            : 0
    faces with skewness > 2   (internal) or 4   (boundary) : 0
    faces with interpolation weights (0..1)  < 0.1         : 3
    faces with volume ratio of neighbour cells < 0.01      : 0
    faces with face twist < 0.02                           : 0
    faces on cells with determinant < 0.001                : 0

Scaling iteration 10
Moving mesh using displacement scaling : min:0.0563135  max:0.998706
Checking faces in error :
    non-orthogonality > 60  degrees                        : 13
    faces with face pyramid volume < 1e-14                 : 0
    faces with face-decomposition tet quality < 1e-15      : 0
    faces with concavity > 80  degrees                     : 0
    faces with area < 1e-08 m^2                            : 0
    faces with skewness > 2   (internal) or 4   (boundary) : 0
    faces with interpolation weights (0..1)  < 0.1         : 3
    faces with volume ratio of neighbour cells < 0.01      : 0
    faces with face twist < 0.02                           : 0
    faces on cells with determinant < 0.001                : 0

Scaling iteration 11
Moving mesh using displacement scaling : min:0.0422351  max:0.997981
Checking faces in error :
    non-orthogonality > 60  degrees                        : 12
    faces with face pyramid volume < 1e-14                 : 0
    faces with face-decomposition tet quality < 1e-15      : 0
    faces with concavity > 80  degrees                     : 0
    faces with area < 1e-08 m^2                            : 0
    faces with skewness > 2   (internal) or 4   (boundary) : 0
    faces with interpolation weights (0..1)  < 0.1         : 3
    faces with volume ratio of neighbour cells < 0.01      : 0
    faces with face twist < 0.02                           : 0
    faces on cells with determinant < 0.001                : 0

Scaling iteration 12
Moving mesh using displacement scaling : min:0.0316764  max:0.997043
Checking faces in error :
    non-orthogonality > 60  degrees                        : 11
    faces with face pyramid volume < 1e-14                 : 0
    faces with face-decomposition tet quality < 1e-15      : 0
    faces with concavity > 80  degrees                     : 0
    faces with area < 1e-08 m^2                            : 0
    faces with skewness > 2   (internal) or 4   (boundary) : 0
    faces with interpolation weights (0..1)  < 0.1         : 2
    faces with volume ratio of neighbour cells < 0.01      : 0
    faces with face twist < 0.02                           : 0
    faces on cells with determinant < 0.001                : 0

Scaling iteration 13
Moving mesh using displacement scaling : min:0.0237573  max:0.995881
Checking faces in error :
    non-orthogonality > 60  degrees                        : 9
    faces with face pyramid volume < 1e-14                 : 0
    faces with face-decomposition tet quality < 1e-15      : 0
    faces with concavity > 80  degrees                     : 0
    faces with area < 1e-08 m^2                            : 0
    faces with skewness > 2   (internal) or 4   (boundary) : 0
    faces with interpolation weights (0..1)  < 0.1         : 2
    faces with volume ratio of neighbour cells < 0.01      : 0
    faces with face twist < 0.02                           : 0
    faces on cells with determinant < 0.001                : 0

Scaling iteration 14
Moving mesh using displacement scaling : min:0.0178179  max:0.994485
Checking faces in error :
    non-orthogonality > 60  degrees                        : 9
    faces with face pyramid volume < 1e-14                 : 0
    faces with face-decomposition tet quality < 1e-15      : 0
    faces with concavity > 80  degrees                     : 0
    faces with area < 1e-08 m^2                            : 0
    faces with skewness > 2   (internal) or 4   (boundary) : 0
    faces with interpolation weights (0..1)  < 0.1         : 2
    faces with volume ratio of neighbour cells < 0.01      : 0
    faces with face twist < 0.02                           : 0
    faces on cells with determinant < 0.001                : 0

Scaling iteration 15
Moving mesh using displacement scaling : min:0.0133635  max:0.992851
Checking faces in error :
    non-orthogonality > 60  degrees                        : 8
    faces with face pyramid volume < 1e-14                 : 0
    faces with face-decomposition tet quality < 1e-15      : 0
    faces with concavity > 80  degrees                     : 0
    faces with area < 1e-08 m^2                            : 0
    faces with skewness > 2   (internal) or 4   (boundary) : 0
    faces with interpolation weights (0..1)  < 0.1         : 1
    faces with volume ratio of neighbour cells < 0.01      : 0
    faces with face twist < 0.02                           : 0
    faces on cells with determinant < 0.001                : 0

Scaling iteration 16
Moving mesh using displacement scaling : min:0.0100226  max:0.990974
Checking faces in error :
    non-orthogonality > 60  degrees                        : 7
    faces with face pyramid volume < 1e-14                 : 0
    faces with face-decomposition tet quality < 1e-15      : 0
    faces with concavity > 80  degrees                     : 0
    faces with area < 1e-08 m^2                            : 0
    faces with skewness > 2   (internal) or 4   (boundary) : 0
    faces with interpolation weights (0..1)  < 0.1         : 1
    faces with volume ratio of neighbour cells < 0.01      : 0
    faces with face twist < 0.02                           : 0
    faces on cells with determinant < 0.001                : 0

Scaling iteration 17
Moving mesh using displacement scaling : min:0.00751695  max:0.988856
Checking faces in error :
    non-orthogonality > 60  degrees                        : 7
    faces with face pyramid volume < 1e-14                 : 0
    faces with face-decomposition tet quality < 1e-15      : 0
    faces with concavity > 80  degrees                     : 0
    faces with area < 1e-08 m^2                            : 0
    faces with skewness > 2   (internal) or 4   (boundary) : 0
    faces with interpolation weights (0..1)  < 0.1         : 1
    faces with volume ratio of neighbour cells < 0.01      : 0
    faces with face twist < 0.02                           : 0
    faces on cells with determinant < 0.001                : 0

Scaling iteration 18
Moving mesh using displacement scaling : min:0.00563771  max:0.986496
Checking faces in error :
    non-orthogonality > 60  degrees                        : 7
    faces with face pyramid volume < 1e-14                 : 0
    faces with face-decomposition tet quality < 1e-15      : 0
    faces with concavity > 80  degrees                     : 0
    faces with area < 1e-08 m^2                            : 0
    faces with skewness > 2   (internal) or 4   (boundary) : 0
    faces with interpolation weights (0..1)  < 0.1         : 1
    faces with volume ratio of neighbour cells < 0.01      : 0
    faces with face twist < 0.02                           : 0
    faces on cells with determinant < 0.001                : 0

Scaling iteration 19
Moving mesh using displacement scaling : min:0.00422828  max:0.983898
Checking faces in error :
    non-orthogonality > 60  degrees                        : 7
    faces with face pyramid volume < 1e-14                 : 0
    faces with face-decomposition tet quality < 1e-15      : 0
    faces with concavity > 80  degrees                     : 0
    faces with area < 1e-08 m^2                            : 0
    faces with skewness > 2   (internal) or 4   (boundary) : 0
    faces with interpolation weights (0..1)  < 0.1         : 1
    faces with volume ratio of neighbour cells < 0.01      : 0
    faces with face twist < 0.02                           : 0
    faces on cells with determinant < 0.001                : 0

Scaling iteration 20
Moving mesh using displacement scaling : min:0.00317121  max:0.981065
Checking faces in error :
    non-orthogonality > 60  degrees                        : 7
    faces with face pyramid volume < 1e-14                 : 0
    faces with face-decomposition tet quality < 1e-15      : 0
    faces with concavity > 80  degrees                     : 0
    faces with area < 1e-08 m^2                            : 0
    faces with skewness > 2   (internal) or 4   (boundary) : 0
    faces with interpolation weights (0..1)  < 0.1         : 1
    faces with volume ratio of neighbour cells < 0.01      : 0
    faces with face twist < 0.02                           : 0
    faces on cells with determinant < 0.001                : 0

Scaling iteration 21
Moving mesh using displacement scaling : min:0.00237841  max:0.978004
Checking faces in error :
    non-orthogonality > 60  degrees                        : 6
    faces with face pyramid volume < 1e-14                 : 0
    faces with face-decomposition tet quality < 1e-15      : 0
    faces with concavity > 80  degrees                     : 0
    faces with area < 1e-08 m^2                            : 0
    faces with skewness > 2   (internal) or 4   (boundary) : 0
    faces with interpolation weights (0..1)  < 0.1         : 1
    faces with volume ratio of neighbour cells < 0.01      : 0
    faces with face twist < 0.02                           : 0
    faces on cells with determinant < 0.001                : 0

Scaling iteration 22
Moving mesh using displacement scaling : min:0.00178381  max:0.97472
Checking faces in error :
    non-orthogonality > 60  degrees                        : 6
    faces with face pyramid volume < 1e-14                 : 0
    faces with face-decomposition tet quality < 1e-15      : 0
    faces with concavity > 80  degrees                     : 0
    faces with area < 1e-08 m^2                            : 0
    faces with skewness > 2   (internal) or 4   (boundary) : 0
    faces with interpolation weights (0..1)  < 0.1         : 1
    faces with volume ratio of neighbour cells < 0.01      : 0
    faces with face twist < 0.02                           : 0
    faces on cells with determinant < 0.001                : 0

Scaling iteration 23
Moving mesh using displacement scaling : min:0.00133786  max:0.971221
Checking faces in error :
    non-orthogonality > 60  degrees                        : 5
    faces with face pyramid volume < 1e-14                 : 0
    faces with face-decomposition tet quality < 1e-15      : 0
    faces with concavity > 80  degrees                     : 0
    faces with area < 1e-08 m^2                            : 0
    faces with skewness > 2   (internal) or 4   (boundary) : 0
    faces with interpolation weights (0..1)  < 0.1         : 1
    faces with volume ratio of neighbour cells < 0.01      : 0
    faces with face twist < 0.02                           : 0
    faces on cells with determinant < 0.001                : 0

Scaling iteration 24
Moving mesh using displacement scaling : min:0.00100339  max:0.967514
Checking faces in error :
    non-orthogonality > 60  degrees                        : 5
    faces with face pyramid volume < 1e-14                 : 0
    faces with face-decomposition tet quality < 1e-15      : 0
    faces with concavity > 80  degrees                     : 0
    faces with area < 1e-08 m^2                            : 0
    faces with skewness > 2   (internal) or 4   (boundary) : 0
    faces with interpolation weights (0..1)  < 0.1         : 1
    faces with volume ratio of neighbour cells < 0.01      : 0
    faces with face twist < 0.02                           : 0
    faces on cells with determinant < 0.001                : 0

Scaling iteration 25
Displacement scaling for error reduction set to 0.
Moving mesh using displacement scaling : min:0.000752543  max:0.963608
Checking faces in error :
    non-orthogonality > 60  degrees                        : 5
    faces with face pyramid volume < 1e-14                 : 0
    faces with face-decomposition tet quality < 1e-15      : 0
    faces with concavity > 80  degrees                     : 0
    faces with area < 1e-08 m^2                            : 0
    faces with skewness > 2   (internal) or 4   (boundary) : 0
    faces with interpolation weights (0..1)  < 0.1         : 1
    faces with volume ratio of neighbour cells < 0.01      : 0
    faces with face twist < 0.02                           : 0
    faces on cells with determinant < 0.001                : 0

Scaling iteration 26
Moving mesh using displacement scaling : min:0  max:0.95951
Checking faces in error :
    non-orthogonality > 60  degrees                        : 0
    faces with face pyramid volume < 1e-14                 : 0
    faces with face-decomposition tet quality < 1e-15      : 0
    faces with concavity > 80  degrees                     : 0
    faces with area < 1e-08 m^2                            : 0
    faces with skewness > 2   (internal) or 4   (boundary) : 0
    faces with interpolation weights (0..1)  < 0.1         : 0
    faces with volume ratio of neighbour cells < 0.01      : 0
    faces with face twist < 0.02                           : 0
    faces on cells with determinant < 0.001                : 0
Successfully moved mesh

Patch points smoothed in = 167.52 s



Morph iteration 0
-----------------
Calculating patchDisplacement as distance to nearest surface point ...
    non-zone points : attract to nearest of all non-zone surfaces
    zone points     : attract to zone surface only

Wanted displacement : average:0.000117828 min:3.82351e-08 max:0.000387889
Calculated surface displacement in = 0.03 s


Detecting near surfaces ...
Overriding nearest with intersection of close gaps at 54 out of 8292 points.
Overriding displacement on features :
   implicit features    : false
   explicit features    : true
   multi-patch features : false

Detected 358 baffle edges out of 16305 edges.
Baffle points     : 412 of which attracted to :
    feature point : 0
    feature edge  : 412
    rest          : 0

Initially selected 1144 mesh points out of 8292 for reverse attraction.
Selected 3005 mesh points out of 8292 for reverse attraction.
Stringing feature edges : changed 137 points
Stringing feature edges : changed 7 points
Stringing feature edges : changed 0 points
Attraction:
    linear   : max:(-0.000287223 -1.37895e-05 0.000260328) avg:(-1.07784e-06 -7.45576e-08 1.07014e-06)
    feature  : max:(9.20941e-05 -4.33946e-06 -0.000380244) avg:(6.09486e-07 -4.23788e-08 2.31648e-07)
Feature analysis : total master points :8292 of which attracted to :
    feature point   : 11
    feature edge    : 794
    nearest surface : 0
    rest            : 7487

--> FOAM Warning : Displacement (1.98707e-07 2.21526e-07 -9.0087e-07) at mesh point 10310 coord (-0.00221528 4.10114e-11 -0.00200373) points through the surrounding patch faces
Smoothing displacement ...
Iteration 0
Iteration 10
Iteration 20
Iteration 30
Iteration 40
Iteration 50
Iteration 60
Iteration 70
Iteration 80
Iteration 90
Iteration 100
Iteration 110
Iteration 120
Iteration 130
Iteration 140
Iteration 150
Iteration 160
Iteration 170
Iteration 180
Iteration 190
Displacement smoothed in = 0.82 s


Moving mesh ...

Iteration 0
Moving mesh using displacement scaling : min:1  max:1
Checking faces in error :
    non-orthogonality > 60  degrees                        : 0
    faces with face pyramid volume < 1e-14                 : 0
    faces with face-decomposition tet quality < 1e-15      : 0
    faces with concavity > 80  degrees                     : 0
    faces with area < 1e-08 m^2                            : 0
    faces with skewness > 2   (internal) or 4   (boundary) : 0
    faces with interpolation weights (0..1)  < 0.1         : 0
    faces with volume ratio of neighbour cells < 0.01      : 0
    faces with face twist < 0.02                           : 0
    faces on cells with determinant < 0.001                : 0
Successfully moved mesh
Moved mesh in = 0.26 s



Morph iteration 1
-----------------
Calculating patchDisplacement as distance to nearest surface point ...
    non-zone points : attract to nearest of all non-zone surfaces
    zone points     : attract to zone surface only

Wanted displacement : average:0.000113165 min:3.95446e-08 max:0.000372647
Calculated surface displacement in = 0.03 s


Detecting near surfaces ...
Overriding nearest with intersection of close gaps at 59 out of 8292 points.
Overriding displacement on features :
   implicit features    : false
   explicit features    : true
   multi-patch features : false

Detected 383 baffle edges out of 16305 edges.
Baffle points     : 440 of which attracted to :
    feature point : 0
    feature edge  : 440
    rest          : 0

Initially selected 1169 mesh points out of 8292 for reverse attraction.
Selected 3033 mesh points out of 8292 for reverse attraction.
Stringing feature edges : changed 134 points
Stringing feature edges : changed 5 points
Stringing feature edges : changed 0 points
Attraction:
    linear   : max:(-0.000275937 -1.32476e-05 0.000250098) avg:(-1.1485e-06 -4.99195e-08 1.00533e-06)
    feature  : max:(8.73219e-05 -4.16316e-06 -0.000379107) avg:(6.41518e-07 -1.1034e-07 2.45537e-07)
Feature analysis : total master points :8292 of which attracted to :
    feature point   : 10
    feature edge    : 810
    nearest surface : 0
    rest            : 7472

--> FOAM Warning : Displacement (-2.51785e-06 4.82515e-06 -1.07767e-05) at mesh point 8812 coord (-0.00223405 -0.000248178 -0.00224754) points through the surrounding patch faces
Smoothing displacement ...
Iteration 0
Iteration 10
Iteration 20
Iteration 30
Iteration 40
Iteration 50
Iteration 60
Iteration 70
Iteration 80
Iteration 90
Iteration 100
Iteration 110
Iteration 120
Iteration 130
Iteration 140
Iteration 150
Iteration 160
Iteration 170
Iteration 180
Iteration 190
Displacement smoothed in = 0.79 s


Moving mesh ...

Iteration 0
Moving mesh using displacement scaling : min:1  max:1
Checking faces in error :
    non-orthogonality > 60  degrees                        : 0
    faces with face pyramid volume < 1e-14                 : 0
    faces with face-decomposition tet quality < 1e-15      : 0
    faces with concavity > 80  degrees                     : 0
    faces with area < 1e-08 m^2                            : 0
    faces with skewness > 2   (internal) or 4   (boundary) : 0
    faces with interpolation weights (0..1)  < 0.1         : 1
    faces with volume ratio of neighbour cells < 0.01      : 0
    faces with face twist < 0.02                           : 0
    faces on cells with determinant < 0.001                : 0

Iteration 1
Moving mesh using displacement scaling : min:0.75  max:1
Checking faces in error :
    non-orthogonality > 60  degrees                        : 0
    faces with face pyramid volume < 1e-14                 : 0
    faces with face-decomposition tet quality < 1e-15      : 0
    faces with concavity > 80  degrees                     : 0
    faces with area < 1e-08 m^2                            : 0
    faces with skewness > 2   (internal) or 4   (boundary) : 0
    faces with interpolation weights (0..1)  < 0.1         : 0
    faces with volume ratio of neighbour cells < 0.01      : 0
    faces with face twist < 0.02                           : 0
    faces on cells with determinant < 0.001                : 0
Successfully moved mesh
Moved mesh in = 2.87 s



Morph iteration 2
-----------------
Calculating patchDisplacement as distance to nearest surface point ...
    non-zone points : attract to nearest of all non-zone surfaces
    zone points     : attract to zone surface only

Wanted displacement : average:0.000104151 min:2.11221e-08 max:0.000343059
Calculated surface displacement in = 0.02 s


Detecting near surfaces ...
Overriding nearest with intersection of close gaps at 66 out of 8292 points.
Overriding displacement on features :
   implicit features    : false
   explicit features    : true
   multi-patch features : false

Detected 411 baffle edges out of 16305 edges.
Baffle points     : 465 of which attracted to :
    feature point : 0
    feature edge  : 465
    rest          : 0

Initially selected 1200 mesh points out of 8292 for reverse attraction.
Selected 3076 mesh points out of 8292 for reverse attraction.
Stringing feature edges : changed 136 points
Stringing feature edges : changed 1 points
Stringing feature edges : changed 0 points
Attraction:
    linear   : max:(-0.000254028 -1.21958e-05 0.000230241) avg:(-1.13611e-06 -5.17153e-08 8.63151e-07)
    feature  : max:(7.83173e-05 -3.82537e-06 -0.000375) avg:(7.51244e-07 -9.20893e-08 2.15175e-07)
Feature analysis : total master points :8292 of which attracted to :
    feature point   : 11
    feature edge    : 829
    nearest surface : 0
    rest            : 7452

--> FOAM Warning : Displacement (-2.27614e-07 1.72903e-06 -5.56431e-06) at mesh point 16122 coord (-0.00222085 -0.000240865 -0.00198928) points through the surrounding patch faces
Smoothing displacement ...
Iteration 0
Iteration 10
Iteration 20
Iteration 30
Iteration 40
Iteration 50
Iteration 60
Iteration 70
Iteration 80
Iteration 90
Iteration 100
Iteration 110
Iteration 120
Iteration 130
Iteration 140
Iteration 150
Iteration 160
Iteration 170
Iteration 180
Iteration 190
Displacement smoothed in = 0.82 s


Moving mesh ...

Iteration 0
Moving mesh using displacement scaling : min:1  max:1
Checking faces in error :
    non-orthogonality > 60  degrees                        : 2
    faces with face pyramid volume < 1e-14                 : 0
    faces with face-decomposition tet quality < 1e-15      : 0
    faces with concavity > 80  degrees                     : 0
    faces with area < 1e-08 m^2                            : 0
    faces with skewness > 2   (internal) or 4   (boundary) : 0
    faces with interpolation weights (0..1)  < 0.1         : 1
    faces with volume ratio of neighbour cells < 0.01      : 0
    faces with face twist < 0.02                           : 0
    faces on cells with determinant < 0.001                : 0

Iteration 1
Moving mesh using displacement scaling : min:0.75  max:1
Checking faces in error :
    non-orthogonality > 60  degrees                        : 0
    faces with face pyramid volume < 1e-14                 : 0
    faces with face-decomposition tet quality < 1e-15      : 0
    faces with concavity > 80  degrees                     : 0
    faces with area < 1e-08 m^2                            : 0
    faces with skewness > 2   (internal) or 4   (boundary) : 0
    faces with interpolation weights (0..1)  < 0.1         : 0
    faces with volume ratio of neighbour cells < 0.01      : 0
    faces with face twist < 0.02                           : 0
    faces on cells with determinant < 0.001                : 0
Successfully moved mesh
Moved mesh in = 3.13 s



Morph iteration 3
-----------------
Calculating patchDisplacement as distance to nearest surface point ...
    non-zone points : attract to nearest of all non-zone surfaces
    zone points     : attract to zone surface only

Wanted displacement : average:9.16672e-05 min:2.41281e-09 max:0.00030194
Calculated surface displacement in = 0.03 s


Detecting near surfaces ...
Overriding nearest with intersection of close gaps at 84 out of 8292 points.
Overriding displacement on features :
   implicit features    : false
   explicit features    : true
   multi-patch features : false

Detected 483 baffle edges out of 16305 edges.
Baffle points     : 520 of which attracted to :
    feature point : 0
    feature edge  : 520
    rest          : 0

Initially selected 1239 mesh points out of 8292 for reverse attraction.
Selected 3159 mesh points out of 8292 for reverse attraction.
Stringing feature edges : changed 134 points
Stringing feature edges : changed 2 points
Stringing feature edges : changed 1 points
Stringing feature edges : changed 1 points
Stringing feature edges : changed 1 points
Stringing feature edges : changed 0 points
Attraction:
    linear   : max:(-0.00022358 -1.0734e-05 0.000202644) avg:(-1.04169e-06 1.78339e-08 6.68557e-07)
    feature  : max:(6.62002e-05 -3.36219e-06 -0.000366177) avg:(9.67274e-07 -3.65606e-08 2.58973e-07)
Feature analysis : total master points :8292 of which attracted to :
    feature point   : 10
    feature edge    : 877
    nearest surface : 0
    rest            : 7405

--> FOAM Warning : Displacement (1.6017e-07 1.19526e-06 -3.23112e-06) at mesh point 10310 coord (-0.00221853 1.13327e-06 -0.00200782) points through the surrounding patch faces
Smoothing displacement ...
Iteration 0
Iteration 10
Iteration 20
Iteration 30
Iteration 40
Iteration 50
Iteration 60
Iteration 70
Iteration 80
Iteration 90
Iteration 100
Iteration 110
Iteration 120
Iteration 130
Iteration 140
Iteration 150
Iteration 160
Iteration 170
Iteration 180
Iteration 190
Displacement smoothed in = 0.87 s


Moving mesh ...

Iteration 0
Moving mesh using displacement scaling : min:1  max:1
Checking faces in error :
    non-orthogonality > 60  degrees                        : 3
    faces with face pyramid volume < 1e-14                 : 0
    faces with face-decomposition tet quality < 1e-15      : 0
    faces with concavity > 80  degrees                     : 0
    faces with area < 1e-08 m^2                            : 0
    faces with skewness > 2   (internal) or 4   (boundary) : 0
    faces with interpolation weights (0..1)  < 0.1         : 3
    faces with volume ratio of neighbour cells < 0.01      : 0
    faces with face twist < 0.02                           : 0
    faces on cells with determinant < 0.001                : 0

Iteration 1
Moving mesh using displacement scaling : min:0.75  max:1
Checking faces in error :
    non-orthogonality > 60  degrees                        : 2
    faces with face pyramid volume < 1e-14                 : 0
    faces with face-decomposition tet quality < 1e-15      : 0
    faces with concavity > 80  degrees                     : 0
    faces with area < 1e-08 m^2                            : 0
    faces with skewness > 2   (internal) or 4   (boundary) : 0
    faces with interpolation weights (0..1)  < 0.1         : 0
[...]
    faces with face-decomposition tet quality < 1e-15      : 0
    faces with concavity > 80  degrees                     : 0
    faces with area < 1e-08 m^2                            : 0
    faces with skewness > 2   (internal) or 4   (boundary) : 0
    faces with interpolation weights (0..1)  < 0.1         : 2
    faces with volume ratio of neighbour cells < 0.01      : 0
    faces with face twist < 0.02                           : 0
    faces on cells with determinant < 0.001                : 0
Detected 3 illegal faces (concave, zero area or negative cell pyramid volume)
Extruding 121 out of 5457 faces (2.21734%). Removed extrusion at 3 faces.
Added 134 out of 16371 cells (0.818521%).


Layer addition iteration 17
--------------------------

Determining displacement for added points according to pointNormal ...
Detected 0 points with point normal pointing through faces.
Reset displacement at 0 points to average of surrounding points.

displacementMedialAxis : Smoothing using Medial Axis ...
displacementMedialAxis : Reducing layer thickness at 0 nodes where thickness to medial axis distance is large 
displacementMedialAxis : Removing isolated regions ...
- if partially extruded faces make angle < 30
- if exclusively surrounded by non-extruded faces
displacementMedialAxis : Number of isolated points extrusion stopped : 1
fieldSmoother : Smoothing field ...
    Iteration 0   residual 3.94979e-07
displacementMedialAxis : Moving mesh ...
displacementMedialAxis : Iteration 0
Moving mesh using displacement scaling : min:1  max:1
Checking faces in error :
    non-orthogonality > 60  degrees                        : 1
    faces with face pyramid volume < 1e-14                 : 0
    faces with face-decomposition tet quality < 1e-15      : 0
    faces with concavity > 80  degrees                     : 0
    faces with area < 1e-08 m^2                            : 0
    faces with skewness > 2   (internal) or 4   (boundary) : 0
    faces with interpolation weights (0..1)  < 0.1         : 0
    faces with volume ratio of neighbour cells < 0.01      : 0
    faces with face twist < 0.02                           : 0
    faces on cells with determinant < 0.001                : 0
displacementMedialAxis : Iteration 1
Moving mesh using displacement scaling : min:0.75  max:1
Checking faces in error :
    non-orthogonality > 60  degrees                        : 0
    faces with face pyramid volume < 1e-14                 : 0
    faces with face-decomposition tet quality < 1e-15      : 0
    faces with concavity > 80  degrees                     : 0
    faces with area < 1e-08 m^2                            : 0
    faces with skewness > 2   (internal) or 4   (boundary) : 0
    faces with interpolation weights (0..1)  < 0.1         : 0
    faces with volume ratio of neighbour cells < 0.01      : 0
    faces with face twist < 0.02                           : 0
    faces on cells with determinant < 0.001                : 0
displacementMedialAxis : Successfully moved mesh
displacementMedialAxis : Finished moving mesh ...
truncateDisplacement : Unextruded 0 faces due to non-consecutive vertices being extruded.
truncateDisplacement : Unextruded 0 faces due to stringed edges with inconsistent extrusion.

Setting up information for layer truncation ...
Detected 0 baffles across faceZones of type internal


Checking mesh with layer ...
Checking faces in error :
    non-orthogonality > 60  degrees                        : 0
    faces with face pyramid volume < 1e-14                 : 0
    faces with face-decomposition tet quality < 1e-15      : 0
    faces with concavity > 80  degrees                     : 0
    faces with area < 1e-08 m^2                            : 0
    faces with skewness > 2   (internal) or 4   (boundary) : 0
    faces with interpolation weights (0..1)  < 0.1         : 2
    faces with volume ratio of neighbour cells < 0.01      : 0
    faces with face twist < 0.02                           : 0
    faces on cells with determinant < 0.001                : 0
Detected 2 illegal faces (concave, zero area or negative cell pyramid volume)
Extruding 117 out of 5457 faces (2.14404%). Removed extrusion at 2 faces.
Added 128 out of 16371 cells (0.78187%).


Layer addition iteration 18
--------------------------

Determining displacement for added points according to pointNormal ...
Detected 0 points with point normal pointing through faces.
Reset displacement at 0 points to average of surrounding points.

displacementMedialAxis : Smoothing using Medial Axis ...
displacementMedialAxis : Reducing layer thickness at 0 nodes where thickness to medial axis distance is large 
displacementMedialAxis : Removing isolated regions ...
- if partially extruded faces make angle < 30
- if exclusively surrounded by non-extruded faces
displacementMedialAxis : Number of isolated points extrusion stopped : 0
fieldSmoother : Smoothing field ...
    Iteration 0   residual 3.91755e-07
displacementMedialAxis : Moving mesh ...
displacementMedialAxis : Iteration 0
Moving mesh using displacement scaling : min:1  max:1
Checking faces in error :
    non-orthogonality > 60  degrees                        : 1
    faces with face pyramid volume < 1e-14                 : 0
    faces with face-decomposition tet quality < 1e-15      : 0
    faces with concavity > 80  degrees                     : 0
    faces with area < 1e-08 m^2                            : 0
    faces with skewness > 2   (internal) or 4   (boundary) : 0
    faces with interpolation weights (0..1)  < 0.1         : 0
    faces with volume ratio of neighbour cells < 0.01      : 0
    faces with face twist < 0.02                           : 0
    faces on cells with determinant < 0.001                : 0
displacementMedialAxis : Iteration 1
Moving mesh using displacement scaling : min:0.75  max:1
Checking faces in error :
    non-orthogonality > 60  degrees                        : 0
    faces with face pyramid volume < 1e-14                 : 0
    faces with face-decomposition tet quality < 1e-15      : 0
    faces with concavity > 80  degrees                     : 0
    faces with area < 1e-08 m^2                            : 0
    faces with skewness > 2   (internal) or 4   (boundary) : 0
    faces with interpolation weights (0..1)  < 0.1         : 0
    faces with volume ratio of neighbour cells < 0.01      : 0
    faces with face twist < 0.02                           : 0
    faces on cells with determinant < 0.001                : 0
displacementMedialAxis : Successfully moved mesh
displacementMedialAxis : Finished moving mesh ...
truncateDisplacement : Unextruded 0 faces due to non-consecutive vertices being extruded.
truncateDisplacement : Unextruded 0 faces due to stringed edges with inconsistent extrusion.

Setting up information for layer truncation ...
Detected 0 baffles across faceZones of type internal


Checking mesh with layer ...
Checking faces in error :
    non-orthogonality > 60  degrees                        : 0
    faces with face pyramid volume < 1e-14                 : 0
    faces with face-decomposition tet quality < 1e-15      : 0
    faces with concavity > 80  degrees                     : 0
    faces with area < 1e-08 m^2                            : 0
    faces with skewness > 2   (internal) or 4   (boundary) : 0
    faces with interpolation weights (0..1)  < 0.1         : 1
    faces with volume ratio of neighbour cells < 0.01      : 0
    faces with face twist < 0.02                           : 0
    faces on cells with determinant < 0.001                : 0
Detected 1 illegal faces (concave, zero area or negative cell pyramid volume)
Extruding 116 out of 5457 faces (2.12571%). Removed extrusion at 1 faces.
Added 125 out of 16371 cells (0.763545%).


Layer addition iteration 19
--------------------------

Determining displacement for added points according to pointNormal ...
Detected 0 points with point normal pointing through faces.
Reset displacement at 0 points to average of surrounding points.

displacementMedialAxis : Smoothing using Medial Axis ...
displacementMedialAxis : Reducing layer thickness at 0 nodes where thickness to medial axis distance is large 
displacementMedialAxis : Removing isolated regions ...
- if partially extruded faces make angle < 30
- if exclusively surrounded by non-extruded faces
displacementMedialAxis : Number of isolated points extrusion stopped : 0
fieldSmoother : Smoothing field ...
    Iteration 0   residual 3.89523e-07
displacementMedialAxis : Moving mesh ...
displacementMedialAxis : Iteration 0
Moving mesh using displacement scaling : min:1  max:1
Checking faces in error :
    non-orthogonality > 60  degrees                        : 1
    faces with face pyramid volume < 1e-14                 : 0
    faces with face-decomposition tet quality < 1e-15      : 0
    faces with concavity > 80  degrees                     : 0
    faces with area < 1e-08 m^2                            : 0
    faces with skewness > 2   (internal) or 4   (boundary) : 0
    faces with interpolation weights (0..1)  < 0.1         : 0
    faces with volume ratio of neighbour cells < 0.01      : 0
    faces with face twist < 0.02                           : 0
    faces on cells with determinant < 0.001                : 0
displacementMedialAxis : Iteration 1
Moving mesh using displacement scaling : min:0.75  max:1
Checking faces in error :
    non-orthogonality > 60  degrees                        : 0
    faces with face pyramid volume < 1e-14                 : 0
    faces with face-decomposition tet quality < 1e-15      : 0
    faces with concavity > 80  degrees                     : 0
    faces with area < 1e-08 m^2                            : 0
    faces with skewness > 2   (internal) or 4   (boundary) : 0
    faces with interpolation weights (0..1)  < 0.1         : 0
    faces with volume ratio of neighbour cells < 0.01      : 0
    faces with face twist < 0.02                           : 0
    faces on cells with determinant < 0.001                : 0
displacementMedialAxis : Successfully moved mesh
displacementMedialAxis : Finished moving mesh ...
truncateDisplacement : Unextruded 0 faces due to non-consecutive vertices being extruded.
truncateDisplacement : Unextruded 0 faces due to stringed edges with inconsistent extrusion.

Setting up information for layer truncation ...
Detected 0 baffles across faceZones of type internal


Checking mesh with layer ...
Checking faces in error :
    non-orthogonality > 60  degrees                        : 0
    faces with face pyramid volume < 1e-14                 : 0
    faces with face-decomposition tet quality < 1e-15      : 0
    faces with concavity > 80  degrees                     : 0
    faces with area < 1e-08 m^2                            : 0
    faces with skewness > 2   (internal) or 4   (boundary) : 0
    faces with interpolation weights (0..1)  < 0.1         : 1
    faces with volume ratio of neighbour cells < 0.01      : 0
    faces with face twist < 0.02                           : 0
    faces on cells with determinant < 0.001                : 0
Detected 1 illegal faces (concave, zero area or negative cell pyramid volume)
Extruding 115 out of 5457 faces (2.10739%). Removed extrusion at 1 faces.
Added 124 out of 16371 cells (0.757437%).


Layer addition iteration 20
--------------------------

Determining displacement for added points according to pointNormal ...
Detected 0 points with point normal pointing through faces.
Reset displacement at 0 points to average of surrounding points.

displacementMedialAxis : Smoothing using Medial Axis ...
displacementMedialAxis : Reducing layer thickness at 0 nodes where thickness to medial axis distance is large 
displacementMedialAxis : Removing isolated regions ...
- if partially extruded faces make angle < 30
- if exclusively surrounded by non-extruded faces
displacementMedialAxis : Number of isolated points extrusion stopped : 0
fieldSmoother : Smoothing field ...
    Iteration 0   residual 3.8841e-07
displacementMedialAxis : Moving mesh ...
displacementMedialAxis : Iteration 0
Moving mesh using displacement scaling : min:1  max:1
Checking faces in error :
    non-orthogonality > 60  degrees                        : 1
    faces with face pyramid volume < 1e-14                 : 0
    faces with face-decomposition tet quality < 1e-15      : 0
    faces with concavity > 80  degrees                     : 0
    faces with area < 1e-08 m^2                            : 0
    faces with skewness > 2   (internal) or 4   (boundary) : 0
    faces with interpolation weights (0..1)  < 0.1         : 0
    faces with volume ratio of neighbour cells < 0.01      : 0
    faces with face twist < 0.02                           : 0
    faces on cells with determinant < 0.001                : 0
displacementMedialAxis : Iteration 1
Moving mesh using displacement scaling : min:0.75  max:1
Checking faces in error :
    non-orthogonality > 60  degrees                        : 0
    faces with face pyramid volume < 1e-14                 : 0
    faces with face-decomposition tet quality < 1e-15      : 0
    faces with concavity > 80  degrees                     : 0
    faces with area < 1e-08 m^2                            : 0
    faces with skewness > 2   (internal) or 4   (boundary) : 0
    faces with interpolation weights (0..1)  < 0.1         : 0
    faces with volume ratio of neighbour cells < 0.01      : 0
    faces with face twist < 0.02                           : 0
    faces on cells with determinant < 0.001                : 0
displacementMedialAxis : Successfully moved mesh
displacementMedialAxis : Finished moving mesh ...
truncateDisplacement : Unextruded 0 faces due to non-consecutive vertices being extruded.
truncateDisplacement : Unextruded 0 faces due to stringed edges with inconsistent extrusion.

Setting up information for layer truncation ...
Detected 0 baffles across faceZones of type internal


Checking mesh with layer ...
Checking faces in error :
    non-orthogonality > 60  degrees                        : 0
    faces with face pyramid volume < 1e-14                 : 0
    faces with face-decomposition tet quality < 1e-15      : 0
    faces with concavity > 80  degrees                     : 0
    faces with area < 1e-08 m^2                            : 0
    faces with skewness > 2   (internal) or 4   (boundary) : 0
    faces with interpolation weights (0..1)  < 0.1         : 1
    faces with volume ratio of neighbour cells < 0.01      : 0
    faces with face twist < 0.02                           : 0
    faces on cells with determinant < 0.001                : 0
Detected 1 illegal faces (concave, zero area or negative cell pyramid volume)
Extruding 114 out of 5457 faces (2.08906%). Removed extrusion at 1 faces.
Added 122 out of 16371 cells (0.74522%).


Layer addition iteration 21
--------------------------

Determining displacement for added points according to pointNormal ...
Detected 0 points with point normal pointing through faces.
Reset displacement at 0 points to average of surrounding points.

displacementMedialAxis : Smoothing using Medial Axis ...
displacementMedialAxis : Reducing layer thickness at 0 nodes where thickness to medial axis distance is large 
displacementMedialAxis : Removing isolated regions ...
- if partially extruded faces make angle < 30
- if exclusively surrounded by non-extruded faces
displacementMedialAxis : Number of isolated points extrusion stopped : 0
fieldSmoother : Smoothing field ...
    Iteration 0   residual 3.86176e-07
displacementMedialAxis : Moving mesh ...
displacementMedialAxis : Iteration 0
Moving mesh using displacement scaling : min:1  max:1
Checking faces in error :
    non-orthogonality > 60  degrees                        : 1
    faces with face pyramid volume < 1e-14                 : 0
    faces with face-decomposition tet quality < 1e-15      : 0
    faces with concavity > 80  degrees                     : 0
    faces with area < 1e-08 m^2                            : 0
    faces with skewness > 2   (internal) or 4   (boundary) : 0
    faces with interpolation weights (0..1)  < 0.1         : 0
    faces with volume ratio of neighbour cells < 0.01      : 0
    faces with face twist < 0.02                           : 0
    faces on cells with determinant < 0.001                : 0
displacementMedialAxis : Iteration 1
Moving mesh using displacement scaling : min:0.75  max:1
Checking faces in error :
    non-orthogonality > 60  degrees                        : 0
    faces with face pyramid volume < 1e-14                 : 0
    faces with face-decomposition tet quality < 1e-15      : 0
    faces with concavity > 80  degrees                     : 0
    faces with area < 1e-08 m^2                            : 0
    faces with skewness > 2   (internal) or 4   (boundary) : 0
    faces with interpolation weights (0..1)  < 0.1         : 0
    faces with volume ratio of neighbour cells < 0.01      : 0
    faces with face twist < 0.02                           : 0
    faces on cells with determinant < 0.001                : 0
displacementMedialAxis : Successfully moved mesh
displacementMedialAxis : Finished moving mesh ...
truncateDisplacement : Unextruded 0 faces due to non-consecutive vertices being extruded.
truncateDisplacement : Unextruded 0 faces due to stringed edges with inconsistent extrusion.

Setting up information for layer truncation ...
Detected 0 baffles across faceZones of type internal


Checking mesh with layer ...
Checking faces in error :
    non-orthogonality > 60  degrees                        : 0
    faces with face pyramid volume < 1e-14                 : 0
    faces with face-decomposition tet quality < 1e-15      : 0
    faces with concavity > 80  degrees                     : 0
    faces with area < 1e-08 m^2                            : 0
    faces with skewness > 2   (internal) or 4   (boundary) : 0
    faces with interpolation weights (0..1)  < 0.1         : 0
    faces with volume ratio of neighbour cells < 0.01      : 0
    faces with face twist < 0.02                           : 0
    faces on cells with determinant < 0.001                : 0
Detected 0 illegal faces (concave, zero area or negative cell pyramid volume)
Extruding 114 out of 5457 faces (2.08906%). Removed extrusion at 0 faces.
Added 121 out of 16371 cells (0.739112%).
Edge intersection testing:
    Number of edges             : 142302
    Number of edges to retest   : 0
    Number of intersected edges : 5355

patch        faces    layers   overall thickness
                               [m]       [%]
-----        -----    ------   ---       ---
propellerCCW 5457     0.0222   2.38e-06  0.679   

Writing 121 added cells to cellSet addedCells
Writing 7 faces inside added layer to faceSet layerFaces

Writing fields with layer information:
    nSurfaceLayers    : actual number of layers
    thickness         : overall layer thickness
    thicknessFraction : overall layer thickness (fraction of desired thickness)

Layer mesh : cells:43384  faces:142302  points:56316
Cells per refinement level:
    0	0
    1	15287
    2	4200
    3	10167
    4	13730
Writing mesh to time constant
Wrote mesh in = 132.41 s.
Layers added in = 132.41 s.
Checking final mesh ...
Checking faces in error :
    non-orthogonality > 60  degrees                        : 0
    faces with face pyramid volume < 1e-14                 : 0
    faces with face-decomposition tet quality < 1e-15      : 0
    faces with concavity > 80  degrees                     : 0
    faces with area < 1e-08 m^2                            : 0
    faces with skewness > 2   (internal) or 4   (boundary) : 0
    faces with interpolation weights (0..1)  < 0.1         : 0
    faces with volume ratio of neighbour cells < 0.01      : 0
    faces with face twist < 0.02                           : 0
    faces on cells with determinant < 0.001                : 0
Finished meshing without any errors
Finished meshing in = 1830.52 s.
End

